37
-1558.18061511 Aspernomine 33shift Molecular Dynamics runpoint 2  runisomer  50
C 1.11149 -2.33611 -0.421633
C 2.08073 -1.72942 0.463954
C 3.41243 -2.17555 0.525698
C 3.72862 -3.2836 -0.233683
C 2.78648 -3.87307 -1.17206
C 1.43101 -3.50698 -1.19306
C 0.0460788 -0.694466 0.657124
C 1.38498 -0.708425 1.12177
H 4.24917 -1.84717 1.29214
H 4.74437 -3.54428 -0.237645
H 3.23457 -4.60253 -1.69355
H 0.701652 -3.80614 -1.88564
H -0.866755 -1.93266 -0.636647
N -0.0844875 -1.68342 -0.219073
S -1.21013 0.216851 1.29564
O -0.785328 2.03424 -0.358432
C -2.63283 -0.304966 0.395235
C -2.80872 -0.0151379 -0.951944
C -3.76983 -0.68148 1.18459
C -4.06872 -0.443755 -1.50986
H -2.00246 0.323365 -1.58562
C -4.96176 -0.923397 0.657092
H -3.60441 -0.761926 2.20794
C -5.12316 -0.865219 -0.772299
H -4.15754 -0.318271 -2.48073
H -5.92471 -1.24159 1.26922
H -6.0473 -1.21936 -1.21666
C 1.98258 0.233715 2.10629
H 2.94917 -0.336042 2.68889
H 2.31688 1.17698 1.70494
H 1.18456 0.513551 2.94383
C 0.463457 1.96548 -0.595192
O 1.09779 0.861283 -0.90289
C 1.29129 3.28228 -0.431847
F 2.45266 3.21204 -1.16045
F 0.624121 4.36216 -0.851244
F 1.68907 3.40663 0.865012
37
-1558.16090418     Aspernomine     33shift     Molecular     Dynamics     runpoint      3     runisomer      50
C 1.0992085 -2.3220143 -0.4206246
C 2.0802744 -1.7372833 0.4791107
C 3.4102819 -2.1801474 0.5158366
C 3.7314986 -3.2809543 -0.2282301
C 2.7818502 -3.8737582 -1.1754753
C 1.4375499 -3.5032670 -1.2027986
C 0.0607080 -0.7079396 0.6540074
C 1.3727969 -0.6977627 1.1150820
H 4.2264120 -1.8208071 1.3311801
H 4.8147405 -3.5855404 -0.2716955
H 3.2409630 -4.5764679 -1.6746795
H 0.6555895 -3.7777714 -1.8926804
H -0.8605159 -1.9872606 -0.6468833
N -0.0749569 -1.6873176 -0.2261344
S -1.2112147 0.2180773 1.2954577
O -0.7918224 2.0288118 -0.3682537
C -2.6300455 -0.3058077 0.3971593
C -2.8115481 -0.0074714 -0.9532558
C -3.7596634 -0.6753711 1.1817038
C -4.0769518 -0.4552204 -1.4894689
H -1.9669696 0.3490435 -1.6297281
C -4.9567640 -0.9265204 0.6562909
H -3.5958043 -0.7784582 2.2696862
C -5.1196243 -0.8690574 -0.7698153
H -4.1716401 -0.2605733 -2.4585686
H -5.9841895 -1.2668892 1.2183671
H -6.1038829 -1.2285010 -1.2359394
C 1.9770072 0.2310080 2.1103844
H 2.9341518 -0.3491272 2.7387635
H 2.3177198 1.1626704 1.6518186
H 1.1652902 0.4754725 2.9525160
C 0.4656986 1.9723806 -0.5858836
O 1.0986388 0.8590169 -0.8993643
C 1.2990794 3.2735077 -0.4233619
F 2.4589532 3.2204313 -1.1619911
F 0.6169828 4.3644063 -0.8562892
F 1.6901110 3.4095152 0.8644800
37
-1558.13621477     Aspernomine     33shift     Molecular     Dynamics     runpoint      4     runisomer      50
C 1.0893897 -2.3099871 -0.4195035
C 2.0782748 -1.7444986 0.4937788
C 3.4100327 -2.1848562 0.5081835
C 3.7348801 -3.2782787 -0.2239601
C 2.7762448 -3.8711594 -1.1754314
C 1.4437359 -3.4972963 -1.2120687
C 0.0733416 -0.7203870 0.6512544
C 1.3637059 -0.6867893 1.1094447
H 4.1824907 -1.7982870 1.3492578
H 4.8719240 -3.6273349 -0.3048019
H 3.2618120 -4.5897500 -1.6878670
H 0.6117846 -3.7583068 -1.9030019
H -0.8899612 -2.0500349 -0.6736077
N -0.0640361 -1.6914873 -0.2333230
S -1.2120930 0.2192748 1.2952989
O -0.7973568 2.0235100 -0.3781155
C -2.6279717 -0.3059556 0.3988298
C -2.8142833 -0.0009664 -0.9553038
C -3.7476528 -0.6691581 1.1809247
C -4.0825184 -0.4654251 -1.4677489
H -1.9453043 0.3717642 -1.6633801
C -4.9560142 -0.9309805 0.6545363
H -3.5890968 -0.7943471 2.3266381
C -5.1181524 -0.8740460 -0.7657526
H -4.1911999 -0.1988883 -2.4785711
H -6.0137682 -1.2830776 1.1598095
H -6.1453056 -1.2298007 -1.2492418
C 1.9717478 0.2271439 2.1174833
H 2.8927544 -0.3443887 2.7695311
H 2.3196197 1.1480725 1.6001031
H 1.1632777 0.4350813 2.9451537
C 0.4678263 1.9775281 -0.5772117
O 1.0986892 0.8582645 -0.8952310
C 1.3077895 3.2650616 -0.4159190
F 2.4646669 3.2287191 -1.1632443
F 0.6100118 4.3662036 -0.8609254
F 1.6909051 3.4124896 0.8639076
37
-1558.12034854     Aspernomine     33shift     Molecular     Dynamics     runpoint      5     runisomer      50
C 1.0832063 -2.3007495 -0.4184008
C 2.0744227 -1.7508776 0.5076449
C 3.4115505 -2.1892360 0.5032284
C 3.7397919 -3.2762947 -0.2212950
C 2.7705529 -3.8663829 -1.1727574
C 1.4485023 -3.4890566 -1.2212162
C 0.0828962 -0.7312067 0.6489714
C 1.3586211 -0.6761206 1.1051399
H 4.1204954 -1.7812614 1.3451563
H 4.9025062 -3.6635155 -0.3342742
H 3.2888576 -4.6296404 -1.7239828
H 0.5791171 -3.7460594 -1.9111099
H -0.9270983 -2.1086033 -0.7005895
N -0.0543857 -1.6965684 -0.2418133
S -1.2126539 0.2203684 1.2951048
O -0.8017592 2.0184004 -0.3879640
C -2.6263675 -0.3052809 0.4000642
C -2.8164439 0.0044352 -0.9582670
C -3.7345052 -0.6632692 1.1833838
C -4.0849975 -0.4734013 -1.4477739
H -1.9443628 0.3884077 -1.6807408
C -4.9592686 -0.9367935 0.6519157
H -3.5854391 -0.8074299 2.3641725
C -5.1198410 -0.8805619 -0.7600746
H -4.2139950 -0.1394613 -2.5141263
H -6.0114179 -1.2895711 1.0977980
H -6.1636066 -1.2211066 -1.2529733
C 1.9668152 0.2224241 2.1270586
H 2.8279537 -0.3229924 2.7796092
H 2.3209134 1.1298190 1.5556700
H 1.1762989 0.3965358 2.9235939
C 0.4696916 1.9805621 -0.5693600
O 1.0979256 0.8591302 -0.8904554
C 1.3171633 3.2575239 -0.4098036
F 2.4697474 3.2368484 -1.1641530
F 0.6033433 4.3673384 -0.8650662
F 1.6915024 3.4155511 0.8633696
37
-1558.10582529     Aspernomine     33shift     Molecular     Dynamics     runpoint      6     runisomer      50
C 1.0815562 -2.2948869 -0.4174618
C 2.0686396 -1.7563121 0.5204207
C 3.4143115 -2.1930044 0.5010720
C 3.7466085 -3.2754911 -0.2205619
C 2.7660922 -3.8612581 -1.1688416
C 1.4511282 -3.4785693 -1.2304118
C 0.0885711 -0.7399811 0.6472226
C 1.3581252 -0.6663256 1.1023584
H 4.0470808 -1.7696555 1.3216037
H 4.9013401 -3.6903113 -0.3578622
H 3.3084016 -4.6748801 -1.7673587
H 0.5635280 -3.7398421 -1.9137425
H -0.9524352 -2.1530615 -0.7170586
N -0.0479786 -1.7029452 -0.2523025
S -1.2128129 0.2212983 1.2948307
O -0.8049070 2.0135459 -0.3977417
C -2.6250458 -0.3036884 0.4007517
C -2.8179359 0.0086810 -0.9620841
C -3.7211230 -0.6580883 1.1894236
C -4.0842558 -0.4782382 -1.4319964
H -1.9660803 0.3978114 -1.6798316
C -4.9657422 -0.9438011 0.6485169
H -3.5847499 -0.8162414 2.3755060
C -5.1250860 -0.8886886 -0.7528066
H -4.2374225 -0.0895857 -2.5427273
H -5.9800087 -1.2873880 1.0383334
H -6.1564619 -1.2024508 -1.2460198
C 1.9622400 0.2171808 2.1381084
H 2.7468757 -0.2887146 2.7703482
H 2.3203178 1.1060350 1.5235771
H 1.1978719 0.3646477 2.8934285
C 0.4711807 1.9812655 -0.5624894
O 1.0963751 0.8616403 -0.8850210
C 1.3269143 3.2513467 -0.4052458
F 2.4741634 3.2447659 -1.1646734
F 0.5970881 4.3676464 -0.8686470
F 1.6919548 3.4186953 0.8629384
37
-1558.09675427     Aspernomine     33shift     Molecular     Dynamics     runpoint      7     runisomer      50
C 1.0849313 -2.2927712 -0.4168170
C 2.0610719 -1.7608020 0.5318308
C 3.4173787 -2.1961809 0.5012690
C 3.7552766 -3.2761275 -0.2219595
C 2.7636932 -3.8570656 -1.1647402
C 1.4513730 -3.4659037 -1.2396358
C 0.0899435 -0.7465046 0.6460177
C 1.3623533 -0.6579072 1.1011567
H 3.9730370 -1.7606312 1.2868470
H 4.8685980 -3.7057788 -0.3739596
H 3.3114074 -4.7102309 -1.8061529
H 0.5673744 -3.7389301 -1.9100184
H -0.9572563 -2.1784448 -0.7186975
N -0.0458086 -1.7105974 -0.2649192
S -1.2125063 0.2220251 1.2944418
O -0.8067379 2.0090030 -0.4073931
C -2.6239022 -0.3011295 0.4008660
C -2.8189818 0.0116353 -0.9664888
C -3.7084234 -0.6539241 1.1988227
C -4.0804940 -0.4794282 -1.4216204
H -2.0081841 0.4005668 -1.6620682
C -4.9740497 -0.9516382 0.6443317
H -3.5862636 -0.8200038 2.3594948
C -5.1335145 -0.8982124 -0.7441393
H -4.2594048 -0.0541318 -2.5524823
H -5.9291735 -1.2798300 0.9894941
H -6.1264158 -1.1755490 -1.2293460
C 1.9578488 0.2119074 2.1489569
H 2.6637417 -0.2499358 2.7488025
H 2.3172925 1.0770105 1.5072484
H 1.2166182 0.3446019 2.8642703
C 0.4722181 1.9795818 -0.5567299
O 1.0941014 0.8657414 -0.8789340
C 1.3367330 3.2468492 -0.4024104
F 2.4779110 3.2524289 -1.1647767
F 0.5913384 4.3670127 -0.8716223
F 1.6923163 3.4219216 0.8626781
37
-1558.09214399     Aspernomine     33shift     Molecular     Dynamics     runpoint      8     runisomer      50
C 1.0933179 -2.2944953 -0.4165513
C 2.0520639 -1.7644610 0.5416112
C 3.4194640 -2.1992314 0.5027059
C 3.7653235 -3.2781947 -0.2255249
C 2.7635963 -3.8544183 -1.1610713
C 1.4495056 -3.4511959 -1.2486891
C 0.0869886 -0.7507847 0.6452997
C 1.3709533 -0.6512960 1.1014463
H 3.9130179 -1.7473974 1.2557517
H 4.8094268 -3.7099371 -0.3817972
H 3.2943536 -4.7277811 -1.8335472
H 0.5894550 -3.7430350 -1.9012350
H -0.9400010 -2.1836236 -0.7053512
N -0.0480603 -1.7192298 -0.2793836
S -1.2116904 0.2225259 1.2939134
O -0.8072492 2.0048158 -0.4168621
C -2.6229340 -0.2976122 0.4004691
C -2.8201570 0.0130379 -0.9709292
C -3.6971916 -0.6509704 1.2108446
C -4.0742778 -0.4768746 -1.4169052
H -2.0635476 0.3995428 -1.6329617
C -4.9820605 -0.9596677 0.6391646
H -3.5887470 -0.8187402 2.3203046
C -5.1439049 -0.9086222 -0.7343383
H -4.2783670 -0.0354529 -2.5389508
H -5.8781800 -1.2735296 0.9619040
H -6.0819862 -1.1438457 -1.2065926
C 1.9528031 0.2074953 2.1571891
H 2.6027271 -0.2217659 2.7314480
H 2.3122485 1.0452833 1.5079285
H 1.2186710 0.3410742 2.8473882
C 0.4727713 1.9756248 -0.5521746
O 1.0912134 0.8712907 -0.8722197
C 1.3462850 3.2442183 -0.4013922
F 2.4810109 3.2598027 -1.1644547
F 0.5861671 4.3653634 -0.8739628
F 1.6926349 3.4252322 0.8626426
37
-1558.08677129     Aspernomine     33shift     Molecular     Dynamics     runpoint      9     runisomer      50
C 1.1061526 -2.2998460 -0.4166995
C 2.0421299 -1.7674985 0.5495284
C 3.4193519 -2.2028911 0.5040307
C 3.7756511 -3.2813196 -0.2310965
C 2.7656208 -3.8534659 -1.1581588
C 1.4462961 -3.4346289 -1.2571970
C 0.0800353 -0.7530105 0.6449454
C 1.3831252 -0.6468401 1.1029943
H 3.8808703 -1.7212253 1.2447214
H 4.7362859 -3.7059651 -0.3819361
H 3.2573742 -4.7245523 -1.8462232
H 0.6249445 -3.7524714 -1.8908683
H -0.9054659 -2.1711377 -0.6802579
N -0.0541290 -1.7283370 -0.2950912
S -1.2103435 0.2227938 1.2932294
O -0.8064976 2.0010193 -0.4260968
C -2.6222352 -0.2931930 0.3997175
C -2.8224638 0.0124311 -0.9744458
C -3.6880107 -0.6492501 1.2241042
C -4.0664539 -0.4708104 -1.4174904
H -2.1190001 0.4008738 -1.6033280
C -4.9872165 -0.9670767 0.6327279
H -3.5904866 -0.8136583 2.2691448
C -5.1541596 -0.9191648 -0.7235357
H -4.2931472 -0.0339126 -2.5024858
H -5.8527051 -1.2774671 0.9671330
H -6.0396325 -1.1125646 -1.1853107
C 1.9456192 0.2049542 2.1607014
H 2.5896268 -0.2209798 2.7391333
H 2.3067361 1.0156414 1.5242075
H 1.1957552 0.3564993 2.8488344
C 0.4728447 1.9696876 -0.5488698
O 1.0878678 0.8780515 -0.8649274
C 1.3552163 3.2435243 -0.4022130
F 2.4835055 3.2668640 -1.1637147
F 0.5816335 4.3626563 -0.8756562
F 1.6929556 3.4286263 0.8628666
37
-1558.09600443     Aspernomine     33shift     Molecular     Dynamics     runpoint      10     runisomer      50
C 1.1223557 -2.3083336 -0.4172666
C 2.0319256 -1.7701918 0.5554123
C 3.4166623 -2.2074257 0.5048324
C 3.7842244 -3.2846458 -0.2382960
C 2.7693044 -3.8540296 -1.1561097
C 1.4429358 -3.4164192 -1.2646402
C 0.0696818 -0.7535174 0.6447667
C 1.3977201 -0.6447812 1.1054466
H 3.8806898 -1.6797411 1.2579850
H 4.6726061 -3.7023270 -0.3769797
H 3.2031575 -4.7012160 -1.8435524
H 0.6657253 -3.7683640 -1.8843532
H -0.8676354 -2.1487852 -0.6509554
N -0.0624628 -1.7371085 -0.3110708
S -1.2084680 0.2228366 1.2923831
O -0.8045984 1.9976390 -0.4350490
C -2.6219633 -0.2879778 0.3988547
C -2.8271216 0.0092021 -0.9758158
C -3.6812415 -0.6485708 1.2364075
C -4.0579862 -0.4617471 -1.4225349
H -2.1575112 0.4135280 -1.5876034
C -4.9882231 -0.9734671 0.6252490
H -3.5892581 -0.8076303 2.2263561
C -5.1617128 -0.9290270 -0.7116867
H -4.3032232 -0.0478093 -2.4479757
H -5.8649034 -1.2960044 1.0105182
H -6.0213486 -1.0873618 -1.1762242
C 1.9358342 0.2040588 2.1601512
H 2.6250487 -0.2483172 2.7739783
H 2.3035274 0.9950721 1.5517681
H 1.1523607 0.3894838 2.8641246
C 0.4724673 1.9622364 -0.5468114
O 1.0842721 0.8856864 -0.8571306
C 1.3631647 3.2447363 -0.4048150
F 2.4854589 3.2735992 -1.1625829
F 0.5777834 4.3588831 -0.8767007
F 1.6933143 3.4321056 0.8633608
37
-1558.11735150     Aspernomine     33shift     Molecular     Dynamics     runpoint      11     runisomer      50
C 1.1404678 -2.3192601 -0.4182378
C 2.0222164 -1.7728393 0.5591902
C 3.4119874 -2.2121992 0.5060301
C 3.7884088 -3.2869513 -0.2466113
C 2.7739647 -3.8555782 -1.1547766
C 1.4407750 -3.3968532 -1.2705148
C 0.0566976 -0.7527350 0.6445338
C 1.4134064 -0.6452251 1.1083902
H 3.9050031 -1.6315086 1.2832774
H 4.6490539 -3.7120315 -0.3709458
H 3.1368762 -4.6625698 -1.8281038
H 0.7026844 -3.7922489 -1.8875036
H -0.8521589 -2.1307955 -0.6295321
N -0.0705015 -1.7443443 -0.3260129
S -1.2060861 0.2226757 1.2913736
O -0.8017132 1.9946995 -0.4436726
C -2.6222976 -0.2821075 0.3981905
C -2.8346423 0.0030688 -0.9743683
C -3.6770413 -0.6485931 1.2452075
C -4.0497613 -0.4505127 -1.4306432
H -2.1688440 0.4437377 -1.5943728
C -4.9862482 -0.9793284 0.6181089
H -3.5828059 -0.8045181 2.2166150
C -5.1649240 -0.9376879 -0.6991422
H -4.3095052 -0.0725039 -2.3868196
H -5.8987115 -1.3232128 1.0840631
H -6.0401695 -1.0708645 -1.1858994
C 1.9244468 0.2033505 2.1587021
H 2.6834327 -0.2876125 2.8169817
H 2.3061358 0.9912963 1.5845940
H 1.1017165 0.4351718 2.8824200
C 0.4716721 1.9538923 -0.5459452
O 1.0806819 0.8937597 -0.8489358
C 1.3697773 3.2477417 -0.4090615
F 2.4869511 3.2800058 -1.1611025
F 0.5746460 4.3540632 -0.8771089
F 1.6937352 3.4356731 0.8641116
37
-1558.13167329     Aspernomine     33shift     Molecular     Dynamics     runpoint      12     runisomer      50
C 1.1588736 -2.3317884 -0.4195611
C 2.0138139 -1.7757128 0.5609073
C 3.4062091 -2.2162627 0.5088237
C 3.7870928 -3.2876440 -0.2557534
C 2.7787283 -3.8570877 -1.1536167
C 1.4408442 -3.3764549 -1.2746763
C 0.0419295 -0.7511427 0.6439980
C 1.4288710 -0.6481089 1.1114493
H 3.9426401 -1.5887925 1.3045429
H 4.6788928 -3.7412263 -0.3652240
H 3.0664708 -4.6193960 -1.8073789
H 0.7303622 -3.8242106 -1.9030087
H -0.8823112 -2.1301663 -0.6257599
N -0.0758641 -1.7489839 -0.3388115
S -1.2032465 0.2223435 1.2902055
O -0.7980490 1.9922259 -0.4519278
C -2.6233979 -0.2757449 0.3980654
C -2.8440228 -0.0053179 -0.9707771
C -3.6753259 -0.6491241 1.2492744
C -4.0423974 -0.4382997 -1.4396878
H -2.1591809 0.4878465 -1.6171802
C -4.9832375 -0.9854637 0.6133598
H -3.5704610 -0.8060301 2.2499686
C -5.1643086 -0.9450641 -0.6872888
H -4.3156716 -0.0995108 -2.3394915
H -5.9291739 -1.3495033 1.1720415
H -6.0865171 -1.0613335 -1.2087985
C 1.9124686 0.2017804 2.1591310
H 2.7402636 -0.3237198 2.8511336
H 2.3170271 1.0086881 1.6182916
H 1.0568825 0.4872157 2.8938710
C 0.4704880 1.9454060 -0.5461744
O 1.0774016 0.9017557 -0.8404726
C 1.3747239 3.2523653 -0.4147449
F 2.4880769 3.2860920 -1.1593333
F 0.5722407 4.3482422 -0.8769022
F 1.6942345 3.4393286 0.8650834
37
-1558.13977564     Aspernomine     33shift     Molecular     Dynamics     runpoint      13     runisomer      50
C 1.1760313 -2.3449899 -0.4210899
C 2.0074935 -1.7790245 0.5607202
C 3.4000386 -2.2189424 0.5139256
C 3.7820762 -3.2875355 -0.2657768
C 2.7826350 -3.8570049 -1.1516061
C 1.4435336 -3.3561697 -1.2776023
C 0.0262368 -0.7492285 0.6429168
C 1.4429721 -0.6531922 1.1143566
H 3.9843297 -1.5607336 1.3110444
H 4.7417285 -3.7798993 -0.3570179
H 3.0017223 -4.5892090 -1.7948401
H 0.7499133 -3.8606926 -1.9278072
H -0.9490165 -2.1439190 -0.6362873
N -0.0786545 -1.7511609 -0.3493936
S -1.2000212 0.2218838 1.2888899
O -0.7938459 1.9902449 -0.4597800
C -2.6253763 -0.2690522 0.3987881
C -2.8534648 -0.0146608 -0.9664509
C -3.6757517 -0.6503036 1.2497205
C -4.0362276 -0.4264509 -1.4472083
H -2.1432590 0.5352440 -1.6414220
C -4.9804226 -0.9924173 0.6128380
H -3.5542836 -0.8098085 2.3103109
C -5.1615713 -0.9512276 -0.6779756
H -4.3278943 -0.1187500 -2.3311163
H -5.9400431 -1.3682969 1.2600165
H -6.1391096 -1.0559332 -1.2327317
C 1.9006555 0.1993600 2.1627190
H 2.7812223 -0.3483329 2.8684604
H 2.3353923 1.0442863 1.6527113
H 1.0264466 0.5395133 2.8926665
C 0.4689293 1.9376032 -0.5473680
O 1.0747711 0.9090993 -0.8318901
C 1.3777244 3.2583784 -0.4215953
F 2.4889390 3.2918722 -1.1573436
F 0.5705694 4.3414934 -0.8761131
F 1.6948180 3.4430749 0.8662188
37
-1558.12793107     Aspernomine     33shift     Molecular     Dynamics     runpoint      14     runisomer      50
C 1.1906019 -2.3578799 -0.4225526
C 2.0038987 -1.7829122 0.5588652
C 3.3939917 -2.2199780 0.5214906
C 3.7759596 -3.2877803 -0.2766470
C 2.7850263 -3.8539139 -1.1477598
C 1.4487505 -3.3372801 -1.2802522
C 0.0104394 -0.7474765 0.6410571
C 1.4547982 -0.6600802 1.1169700
H 4.0236089 -1.5521806 1.2979355
H 4.8080807 -3.8135461 -0.3439815
H 2.9500614 -4.5887432 -1.8038745
H 0.7666389 -3.8949902 -1.9548560
H -1.0214212 -2.1593103 -0.6507938
N -0.0807267 -1.7517389 -0.3582737
S -1.1964972 0.2213478 1.2874473
O -0.7893694 1.9887875 -0.4672043
C -2.6283058 -0.2621781 0.4006024
C -2.8613885 -0.0237056 -0.9625407
C -3.6778553 -0.6523703 1.2485659
C -4.0317938 -0.4157661 -1.4521323
H -2.1329067 0.5759555 -1.6552527
C -4.9782908 -1.0004197 0.6177263
H -3.5375957 -0.8122794 2.3723146
C -5.1581799 -0.9562082 -0.6725485
H -4.3487959 -0.1264218 -2.3713279
H -5.9245096 -1.3765839 1.3377230
H -6.1806555 -1.0529730 -1.2478543
C 1.8897455 0.1968384 2.1696301
H 2.7992524 -0.3578888 2.8668533
H 2.3571655 1.0887233 1.6905534
H 1.0143906 0.5870251 2.8767878
C 0.4670068 1.9313078 -0.5493829
O 1.0731406 0.9152061 -0.8233373
C 1.3785658 3.2655123 -0.4292999
F 2.4896382 3.2973676 -1.1552123
F 0.5696132 4.3339183 -0.8747860
F 1.6954778 3.4469118 0.8674500
37
-1558.10703635     Aspernomine     33shift     Molecular     Dynamics     runpoint      15     runisomer      50
C 1.2015096 -2.3694878 -0.4235869
C 2.0034719 -1.7874318 0.5556232
C 3.3884660 -2.2194854 0.5312432
C 3.7705304 -3.2889760 -0.2880284
C 2.7858643 -3.8478813 -1.1423079
C 1.4562534 -3.3210731 -1.2836748
C -0.0047144 -0.7463458 0.6382011
C 1.4636731 -0.6682720 1.1192566
H 4.0563616 -1.5645185 1.2646235
H 4.8581846 -3.8329941 -0.3261243
H 2.9126709 -4.6185277 -1.8341338
H 0.7855837 -3.9201013 -1.9771404
H -1.0756620 -2.1672077 -0.6620897
N -0.0835536 -1.7513483 -0.3658062
S -1.1927763 0.2207930 1.2859087
O -0.7848985 1.9878850 -0.4741862
C -2.6322348 -0.2552516 0.4036576
C -2.8667245 -0.0315336 -0.9596514
C -3.6812030 -0.6554473 1.2473460
C -4.0302440 -0.4062314 -1.4557669
H -2.1342584 0.6035832 -1.6524459
C -4.9769217 -1.0094988 0.6284405
H -3.5231961 -0.8111449 2.4174624
C -5.1549881 -0.9599891 -0.6714965
H -4.3723713 -0.1278493 -2.4424493
H -5.8815805 -1.3736633 1.3985380
H -6.2015296 -1.0518214 -1.2489815
C 1.8804554 0.1950827 2.1794814
H 2.7914392 -0.3514272 2.8472796
H 2.3773605 1.1311705 1.7339985
H 1.0209138 0.6261171 2.8472049
C 0.4647598 1.9272479 -0.5520852
O 1.0728370 0.9195523 -0.8149449
C 1.3771325 3.2734597 -0.4375212
F 2.4902648 3.3026046 -1.1530139
F 0.5693326 4.3256501 -0.8729765
F 1.6961975 3.4508394 0.8686975
37
-1558.09592873     Aspernomine     33shift     Molecular     Dynamics     runpoint      16     runisomer      50
C 1.2079743 -2.3789801 -0.4238331
C 2.0064169 -1.7925489 0.5512994
C 3.3837517 -2.2178982 0.5425620
C 3.7667427 -3.2911665 -0.2993673
C 2.7854575 -3.8404498 -1.1367241
C 1.4658197 -3.3085408 -1.2887086
C -0.0185589 -0.7462338 0.6341720
C 1.4691368 -0.6772166 1.1212674
H 4.0807780 -1.5961025 1.2139041
H 4.8821081 -3.8344232 -0.3048408
H 2.8874017 -4.6628752 -1.8711072
H 0.8093783 -3.9309725 -1.9901098
H -1.1000580 -2.1638093 -0.6670617
N -0.0878112 -1.7502730 -0.3721043
S -1.1889644 0.2202764 1.2843148
O -0.7807149 1.9875643 -0.4807236
C -2.6371911 -0.2483803 0.4079901
C -2.8689133 -0.0375853 -0.9579569
C -3.6854326 -0.6595328 1.2469169
C -4.0327495 -0.3976298 -1.4601193
H -2.1490260 0.6150793 -1.6312406
C -4.9761590 -1.0195339 0.6446488
H -3.5128960 -0.8055591 2.4361844
C -5.1523463 -0.9625485 -0.6745200
H -4.3899240 -0.1297881 -2.5184335
H -5.8140316 -1.3603961 1.4388252
H -6.1980688 -1.0523909 -1.2346140
C 1.8733816 0.1946802 2.1915861
H 2.7579288 -0.3298233 2.8128989
H 2.3921492 1.1632428 1.7830116
H 1.0427091 0.6549440 2.8075565
C 0.4622931 1.9259486 -0.5553746
O 1.0741115 0.9217471 -0.8068028
C 1.3734249 3.2818766 -0.4459087
F 2.4908897 3.3076087 -1.1508203
F 0.5696594 4.3168559 -0.8707540
F 1.6969492 3.4548535 0.8698799
37
-1558.10116394     Aspernomine     33shift     Molecular     Dynamics     runpoint      17     runisomer      50
C 1.2095369 -2.3857910 -0.4230586
C 2.0126821 -1.7981195 0.5462122
C 3.3799467 -2.2159697 0.5544989
C 3.7650188 -3.2940687 -0.3100238
C 2.7841192 -3.8333246 -1.1325428
C 1.4772611 -3.3001951 -1.2958087
C -0.0305289 -0.7474383 0.6288602
C 1.4709235 -0.6863733 1.1230870
H 4.0982223 -1.6418855 1.1521023
H 4.8761136 -3.8173131 -0.2820170
H 2.8726370 -4.7049206 -1.8996881
H 0.8380507 -3.9253514 -1.9923128
H -1.0913282 -2.1487161 -0.6651711
N -0.0936131 -1.7486055 -0.3771476
S -1.1851645 0.2198493 1.2827072
O -0.7770775 1.9878488 -0.4868258
C -2.6431841 -0.2416464 0.4135011
C -2.8679423 -0.0416625 -0.9573347
C -3.6902379 -0.6645403 1.2476480
C -4.0399032 -0.3898876 -1.4664790
H -2.1754964 0.6103820 -1.5933824
C -4.9755793 -1.0302519 0.6653245
H -3.5076786 -0.7956293 2.4254446
C -5.1502208 -0.9638782 -0.6807145
H -4.3959111 -0.1359392 -2.5807190
H -5.7284911 -1.3392683 1.4585126
H -6.1713411 -1.0549011 -1.2061401
C 1.8689041 0.1958511 2.2048971
H 2.7029439 -0.2963746 2.7697365
H 2.3996090 1.1802352 1.8354744
H 1.0725532 0.6741290 2.7642467
C 0.4598137 1.9276512 -0.5592025
O 1.0771021 0.9216001 -0.7989430
C 1.3675797 3.2903799 -0.4541167
F 2.4915533 3.3124042 -1.1486888
F 0.5704883 4.3077397 -0.8681998
F 1.6976920 3.4589498 0.8709127
37
-1558.11992799     Aspernomine     33shift     Molecular     Dynamics     runpoint      18     runisomer      50
C 1.2060785 -2.3897136 -0.4212594
C 2.0219563 -1.8038884 0.5406844
C 3.3768069 -2.2147810 0.5657893
C 3.7653526 -3.2972274 -0.3193810
C 2.7821525 -3.8277091 -1.1307532
C 1.4903884 -3.2959546 -1.3049320
C -0.0401683 -0.7501212 0.6222470
C 1.4689484 -0.6952681 1.1247960
H 4.1147964 -1.6928726 1.0893150
H 4.8410295 -3.7834543 -0.2596045
H 2.8676051 -4.7339396 -1.9108273
H 0.8692365 -3.9040907 -1.9855100
H -1.0528255 -2.1240990 -0.6578529
N -0.1006174 -1.7463140 -0.3808249
S -1.1814708 0.2195532 1.2811261
O -0.7742087 1.9887558 -0.4925099
C -2.6502004 -0.2351109 0.4199604
C -2.8644281 -0.0439906 -0.9573697
C -3.6953602 -0.6703204 1.2495323
C -4.0516266 -0.3830156 -1.4752975
H -2.2082440 0.5930123 -1.5443153
C -4.9743162 -1.0411657 0.6887352
H -3.5077960 -0.7821277 2.3873746
C -5.1481762 -0.9639814 -0.6887524
H -4.3883886 -0.1474443 -2.6194480
H -5.6372176 -1.3151438 1.4636240
H -6.1277389 -1.0599132 -1.1679503
C 1.8669209 0.1986250 2.2178284
H 2.6380742 -0.2588128 2.7287325
H 2.3997078 1.1809993 1.8878762
H 1.0991705 0.6873466 2.7261609
C 0.4576395 1.9322726 -0.5635676
O 1.0818041 0.9191494 -0.7913391
C 1.3598842 3.2985500 -0.4618096
F 2.4922605 3.3170108 -1.1466640
F 0.5716783 4.2985451 -0.8654133
F 1.6983779 3.4631150 0.8717160
37
-1558.13191313     Aspernomine     33shift     Molecular     Dynamics     runpoint      19     runisomer      50
C 1.1978187 -2.3909014 -0.4186808
C 2.0336695 -1.8094980 0.5350209
C 3.3737567 -2.2155807 0.5750544
C 3.7672021 -3.3000505 -0.3269357
C 2.7799407 -3.8243207 -1.1318121
C 1.5050203 -3.2951122 -1.3154813
C -0.0471515 -0.7542885 0.6144238
C 1.4633066 -0.7035465 1.1264398
H 4.1411360 -1.7375969 1.0374882
H 4.7832393 -3.7372391 -0.2392979
H 2.8717516 -4.7448649 -1.9009569
H 0.8981195 -3.8714489 -1.9749124
H -0.9965626 -2.0954010 -0.6491123
N -0.1078683 -1.7431901 -0.3828900
S -1.1779571 0.2194128 1.2796062
O -0.7722663 1.9902917 -0.4978030
C -2.6581920 -0.2288122 0.4270161
C -2.8596715 -0.0453135 -0.9572762
C -3.7006073 -0.6766691 1.2521281
C -4.0673106 -0.3770258 -1.4864420
H -2.2370040 0.5715193 -1.4940260
C -4.9709015 -1.0515215 0.7123273
H -3.5125645 -0.7664393 2.3299770
C -5.1452394 -0.9628538 -0.6970227
H -4.3679028 -0.1640608 -2.6308387
H -5.5598185 -1.2960099 1.4700083
H -6.0808369 -1.0686206 -1.1279704
C 1.8663552 0.2031977 2.2282496
H 2.5858269 -0.2316165 2.7076840
H 2.3941402 1.1675849 1.9359617
H 1.1097586 0.7002255 2.7024675
C 0.4561612 1.9394344 -0.5685007
O 1.0880808 0.9146460 -0.7839201
C 1.3507715 3.3059377 -0.4686712
F 2.4929850 3.3214447 -1.1447719
F 0.5730464 4.2895543 -0.8625073
F 1.6989499 3.4673316 0.8722135
37
-1558.11906595     Aspernomine     33shift     Molecular     Dynamics     runpoint      20     runisomer      50
C 1.1853053 -2.3897770 -0.4157562
C 2.0469965 -1.8145302 0.5294796
C 3.3704702 -2.2192815 0.5813347
C 3.7691811 -3.3017407 -0.3323992
C 2.7779813 -3.8235113 -1.1357628
C 1.5209857 -3.2964377 -1.3263878
C -0.0513056 -0.7597820 0.6055974
C 1.4542828 -0.7109913 1.1280327
H 4.1855817 -1.7678336 1.0046053
H 4.7181578 -3.6869147 -0.2218518
H 2.8844511 -4.7367579 -1.8704349
H 0.9176474 -3.8347465 -1.9689031
H -0.9468944 -2.0726482 -0.6467382
N -0.1135431 -1.7387506 -0.3828864
S -1.1746787 0.2194342 1.2781704
O -0.7713221 1.9924553 -0.5027406
C -2.6670648 -0.2227646 0.4342297
C -2.8554942 -0.0468386 -0.9559635
C -3.7058933 -0.6833251 1.2543805
C -4.0859713 -0.3719139 -1.4993630
H -2.2473558 0.5591962 -1.4559759
C -4.9637081 -1.0604920 0.7331589
H -3.5198354 -0.7505369 2.2693383
C -5.1399563 -0.9604521 -0.7038709
H -4.3368234 -0.1847251 -2.6159679
H -5.5181340 -1.2908922 1.5001024
H -6.0508501 -1.0831340 -1.0966730
C 1.8653187 0.2099386 2.2343113
H 2.5711437 -0.2314010 2.7254807
H 2.3862300 1.1450454 1.9752389
H 1.0965368 0.7162337 2.6982718
C 0.4557724 1.9485264 -0.5740379
O 1.0956921 0.9085026 -0.7765919
C 1.3408086 3.3120780 -0.4744075
F 2.4936665 3.3257139 -1.1430249
F 0.5743715 4.2810853 -0.8596099
F 1.6993459 3.4715777 0.8723387
37
-1558.10617215     Aspernomine     33shift     Molecular     Dynamics     runpoint      21     runisomer      50
C 1.1693919 -2.3869034 -0.4129696
C 2.0608821 -1.8185472 0.5242418
C 3.3676940 -2.2260001 0.5845031
C 3.7688624 -3.3012444 -0.3357843
C 2.7768669 -3.8252730 -1.1422701
C 1.5379807 -3.2985386 -1.3364633
C -0.0526158 -0.7662844 0.5960878
C 1.4423256 -0.7175091 1.1295754
H 4.2442509 -1.7838491 0.9901061
H 4.6729378 -3.6450922 -0.2060000
H 2.9050554 -4.7126192 -1.8231479
H 0.9207493 -3.8017878 -1.9763561
H -0.9336705 -2.0676622 -0.6606506
N -0.1154779 -1.7324272 -0.3802841
S -1.1716742 0.2196021 1.2768279
O -0.7713446 1.9952392 -0.5073672
C -2.6766592 -0.2169650 0.4411281
C -2.8534477 -0.0495538 -0.9526373
C -3.7112462 -0.6899988 1.2546485
C -4.1063866 -0.3676865 -1.5130843
H -2.2284726 0.5664732 -1.4399646
C -4.9524235 -1.0677982 0.7497946
H -3.5257330 -0.7365637 2.2295166
C -5.1312770 -0.9567536 -0.7081249
H -4.2991971 -0.2076184 -2.5817336
H -5.5191602 -1.3027477 1.5612524
H -6.0541252 -1.1056552 -1.0816702
C 1.8630637 0.2182732 2.2362244
H 2.5932988 -0.2596467 2.7832265
H 2.3807768 1.1212008 2.0014682
H 1.0620174 0.7330919 2.7118581
C 0.4567934 1.9588036 -0.5801937
O 1.1043372 0.9012227 -0.7692609
C 1.3306541 3.3165152 -0.4787579
F 2.4942274 3.3298189 -1.1414234
F 0.5754075 4.2734775 -0.8568574
F 1.6995024 3.4758248 0.8720330
37
-1558.12170422     Aspernomine     33shift     Molecular     Dynamics     runpoint      22     runisomer      50
C 1.1512054 -2.3828632 -0.4107373
C 2.0741448 -1.8211406 0.5194157
C 3.3670133 -2.2352848 0.5849795
C 3.7638462 -3.2976896 -0.3373187
C 2.7771758 -3.8291240 -1.1505801
C 1.5552043 -3.3003908 -1.3449970
C -0.0512198 -0.7733321 0.5863370
C 1.4280275 -0.7231090 1.1310829
H 4.3030048 -1.7915385 0.9882201
H 4.6748359 -3.6233125 -0.1890483
H 2.9332973 -4.6807473 -1.7672680
H 0.9053790 -3.7761410 -2.0010385
H -0.9621076 -2.0819094 -0.6932025
N -0.1133906 -1.7244361 -0.3752157
S -1.1689664 0.2198868 1.2755764
O -0.7721892 1.9986370 -0.5117324
C -2.6867353 -0.2113860 0.4472566
C -2.8537895 -0.0532607 -0.9475345
C -3.7166349 -0.6964655 1.2517064
C -4.1272135 -0.3643957 -1.5260322
H -2.1840627 0.5898382 -1.4435782
C -4.9385823 -1.0739316 0.7632201
H -3.5265744 -0.7257247 2.2310145
C -5.1198977 -0.9519790 -0.7096093
H -4.2605414 -0.2300779 -2.5432980
H -5.5492188 -1.3260211 1.6342826
H -6.0872431 -1.1359179 -1.0814071
C 1.8602211 0.2265171 2.2362029
H 2.6265079 -0.3009859 2.8621787
H 2.3831681 1.1049798 2.0114833
H 1.0166103 0.7446246 2.7366498
C 0.4594058 1.9694658 -0.5869444
O 1.1136998 0.8933377 -0.7618511
C 1.3210063 3.3188507 -0.4815002
F 2.4945766 3.3337533 -1.1399591
F 0.5758991 4.2670673 -0.8543818
F 1.6993573 3.4800409 0.8712504
37
-1558.14277204     Aspernomine     33shift     Molecular     Dynamics     runpoint      23     runisomer      50
C 1.1320640 -2.3782095 -0.4093469
C 2.0856446 -1.8219763 0.5150637
C 3.3698506 -2.2465618 0.5832774
C 3.7543188 -3.2912653 -0.3370066
C 2.7792745 -3.8339574 -1.1595158
C 1.5711838 -3.3015904 -1.3521020
C -0.0473870 -0.7803248 0.5768976
C 1.4120894 -0.7278690 1.1326072
H 4.3477196 -1.7967300 0.9933627
H 4.7222465 -3.6215092 -0.1716244
H 2.9700815 -4.6562700 -1.7157620
H 0.8776248 -3.7553579 -2.0384616
H -1.0063588 -2.1033784 -0.7349547
N -0.1093608 -1.7160059 -0.3687902
S -1.1665708 0.2202481 1.2743997
O -0.7736060 2.0026411 -0.5158940
C -2.6969731 -0.2059757 0.4522153
C -2.8557102 -0.0568617 -0.9416164
C -3.7216410 -0.7026098 1.2463725
C -4.1471551 -0.3621166 -1.5360725
H -2.1291192 0.6153804 -1.4560465
C -4.9242206 -1.0795833 0.7749007
H -3.5226454 -0.7177736 2.2715298
C -5.1079284 -0.9466528 -0.7088136
H -4.2265079 -0.2490374 -2.5237613
H -5.5901846 -1.3534013 1.6952186
H -6.1306640 -1.1703914 -1.0879843
C 1.8571336 0.2332926 2.2364350
H 2.6487083 -0.3403602 2.9427870
H 2.3969128 1.1021338 2.0043304
H 0.9722964 0.7452242 2.7651043
C 0.4636227 1.9797170 -0.5942186
O 1.1234797 0.8853611 -0.7543141
C 1.3125351 3.3188053 -0.4824751
F 2.4946289 3.3375021 -1.1386213
F 0.5756142 4.2621453 -0.8523019
F 1.6988561 3.4841901 0.8699592
37
-1558.13480887     Aspernomine     33shift     Molecular     Dynamics     runpoint      24     runisomer      50
C 1.1133547 -2.3734519 -0.4089796
C 2.0944506 -1.8208379 0.5112209
C 3.3769126 -2.2592540 0.5798550
C 3.7428959 -3.2830318 -0.3345549
C 2.7832129 -3.8383403 -1.1678137
C 1.5841989 -3.3020987 -1.3583998
C -0.0414936 -0.7865564 0.5683991
C 1.3952699 -0.7319122 1.1342237
H 4.3695514 -1.8031049 1.0019168
H 4.7868061 -3.6302848 -0.1586364
H 3.0176649 -4.6571872 -1.6826027
H 0.8480934 -3.7346651 -2.0796306
H -1.0407050 -2.1194686 -0.7746592
N -0.1055400 -1.7084305 -0.3623339
S -1.1644975 0.2206397 1.2732759
O -0.7752722 2.0072378 -0.5199150
C -2.7069996 -0.2006620 0.4556886
C -2.8583175 -0.0593467 -0.9357692
C -3.7254884 -0.7083286 1.2411736
C -4.1652186 -0.3608046 -1.5415563
H -2.0782767 0.6304969 -1.4675038
C -4.9110500 -1.0852967 0.7855514
H -3.5177707 -0.7121339 2.3291383
C -5.0974429 -0.9414030 -0.7062303
H -4.2002772 -0.2628115 -2.5417965
H -5.6292004 -1.3798086 1.7293904
H -6.1653119 -1.2045999 -1.0940585
C 1.8537910 0.2381761 2.2381864
H 2.6493881 -0.3691076 3.0124148
H 2.4208774 1.1111395 1.9819447
H 0.9385269 0.7321677 2.7911118
C 0.4692916 1.9888125 -0.6019060
O 1.1334088 0.8777552 -0.7466327
C 1.3058099 3.3162807 -0.4816080
F 2.4943053 3.3410447 -1.1373951
F 0.5743788 4.2589206 -0.8507017
F 1.6979529 3.4882327 0.8681453
