37
-1558.18880954 Aspernomine 33shift Molecular Dynamics runpoint 2  runisomer  29
C 1.14121 -2.34386 -0.404208
C 2.114 -1.67272 0.390625
C 3.48141 -2.10455 0.506534
C 3.78063 -3.18359 -0.294049
C 2.82075 -3.93615 -1.03025
C 1.45142 -3.54152 -1.08376
C 0.00542245 -0.70345 0.619678
C 1.43459 -0.62733 1.10491
H 4.24428 -1.52061 1.06395
H 4.90311 -3.60061 -0.290934
H 3.19796 -4.81799 -1.64932
H 0.822957 -3.94316 -1.71511
H -0.864984 -1.86109 -0.833632
N -0.107345 -1.66532 -0.297656
S -1.21457 0.254528 1.24683
O -0.836107 2.15917 -0.446913
C -2.69414 -0.210936 0.374251
C -2.81951 -0.142772 -0.994765
C -3.72579 -0.619438 1.20723
C -4.10115 -0.390633 -1.524
H -1.99717 0.107685 -1.45161
C -4.91051 -1.09689 0.688662
H -3.68411 -0.648075 2.22385
C -5.19184 -0.867597 -0.702641
H -4.4399 -0.233626 -2.66799
H -5.68348 -1.44672 1.24969
H -6.10453 -1.02964 -1.13643
C 1.92715 0.120381 2.26379
H 2.75688 -0.273255 2.76664
H 1.96416 1.21547 1.84333
H 1.14043 0.262278 3.06327
C 0.366387 2.028 -0.689828
O 0.989934 0.931141 -0.936672
C 1.36264 3.26332 -0.411941
F 2.41403 3.1023 -1.23721
F 0.730224 4.41812 -0.706896
F 1.75179 3.2106 0.915512
37
-1558.15812830     Aspernomine     33shift     Molecular     Dynamics     runpoint      3     runisomer      29
C 1.1394243 -2.3411611 -0.4100975
C 2.1345478 -1.6818997 0.3925256
C 3.4814250 -2.0898016 0.5007502
C 3.7739870 -3.1918587 -0.2903066
C 2.8198342 -3.9362478 -1.0343085
C 1.4584251 -3.5371571 -1.0807562
C -0.0147482 -0.6941982 0.6112410
C 1.4376338 -0.6196889 1.1180431
H 4.2129863 -1.5236790 1.0470060
H 4.9663245 -3.5845235 -0.2968796
H 3.1346196 -4.7851854 -1.6653531
H 0.7849260 -3.9109260 -1.7567583
H -0.8358338 -1.8784703 -0.8108865
N -0.1069426 -1.6579699 -0.2978458
S -1.2132494 0.2580470 1.2501815
O -0.8478292 2.1531549 -0.4452309
C -2.6982043 -0.2216674 0.3744164
C -2.8243057 -0.1469552 -0.9868612
C -3.7139051 -0.6117548 1.2072355
C -4.0997647 -0.3952835 -1.5402563
H -1.9857166 0.1246912 -1.4262369
C -4.9222183 -1.1068235 0.6797096
H -3.6674761 -0.6821899 2.2204121
C -5.1935815 -0.8675258 -0.7057290
H -4.4791238 -0.2146374 -2.7029650
H -5.6749627 -1.3944491 1.2863832
H -6.0722518 -1.0013950 -1.1100804
C 1.9202918 0.1224652 2.2628432
H 2.7307402 -0.2515868 2.7571844
H 1.9755486 1.2883863 1.8024418
H 1.1447021 0.1973463 3.0951937
C 0.3695066 2.0250870 -0.6936847
O 0.9886112 0.9344329 -0.9314752
C 1.3486935 3.2574715 -0.4122237
F 2.4216863 3.0942666 -1.2441827
F 0.7342465 4.4155953 -0.7065860
F 1.7660593 3.2075483 0.9303281
37
-1558.12793953     Aspernomine     33shift     Molecular     Dynamics     runpoint      4     runisomer      29
C 1.1380779 -2.3387017 -0.4158718
C 2.1534288 -1.6894459 0.3955357
C 3.4806023 -2.0757045 0.4938053
C 3.7707394 -3.2015182 -0.2862876
C 2.8184884 -3.9359447 -1.0385371
C 1.4669948 -3.5309554 -1.0767043
C -0.0333540 -0.6842192 0.6033809
C 1.4400799 -0.6141595 1.1299502
H 4.1840250 -1.5263169 1.0322166
H 4.9954516 -3.5582485 -0.3036569
H 3.0705500 -4.7482778 -1.6763704
H 0.7313923 -3.8932885 -1.8123634
H -0.8523388 -1.9075527 -0.8176826
N -0.1024474 -1.6508940 -0.2962689
S -1.2120469 0.2617014 1.2535844
O -0.8595902 2.1471946 -0.4437169
C -2.7018887 -0.2324279 0.3757315
C -2.8325824 -0.1520534 -0.9783933
C -3.7037382 -0.6052569 1.2057270
C -4.1003498 -0.4000684 -1.5580148
H -1.9409371 0.1569938 -1.4309607
C -4.9322603 -1.1146626 0.6677587
H -3.6434775 -0.7155981 2.2457907
C -5.1895219 -0.8666482 -0.7067876
H -4.5007700 -0.1995649 -2.7085378
H -5.6892921 -1.3533359 1.3437992
H -6.0859045 -0.9819266 -1.1038869
C 1.9103563 0.1282008 2.2610601
H 2.7325253 -0.2371632 2.7541829
H 1.9917379 1.3351628 1.7770513
H 1.1534634 0.1330001 3.1163706
C 0.3737212 2.0220792 -0.6965388
O 0.9870068 0.9378955 -0.9263172
C 1.3343292 3.2506729 -0.4134514
F 2.4290717 3.0865472 -1.2505178
F 0.7386425 4.4128806 -0.7058674
F 1.7801451 3.2047462 0.9443074
37
-1558.12654148     Aspernomine     33shift     Molecular     Dynamics     runpoint      5     runisomer      29
C 1.1376238 -2.3362470 -0.4210650
C 2.1693574 -1.6948415 0.3995627
C 3.4788212 -2.0633647 0.4851599
C 3.7711348 -3.2121861 -0.2820223
C 2.8165099 -3.9344759 -1.0423019
C 1.4750109 -3.5236138 -1.0732893
C -0.0496341 -0.6737180 0.5963281
C 1.4418419 -0.6110447 1.1400491
H 4.1666089 -1.5221298 1.0256650
H 4.9876595 -3.5235231 -0.3110510
H 3.0123628 -4.7180873 -1.6895427
H 0.6825886 -3.8808534 -1.8630359
H -0.8977059 -1.9434372 -0.8415616
N -0.0952383 -1.6445551 -0.2940246
S -1.2110661 0.2655320 1.2570167
O -0.8708947 2.1412924 -0.4424785
C -2.7048250 -0.2430116 0.3782184
C -2.8421568 -0.1573009 -0.9711350
C -3.6960736 -0.6005551 1.2038807
C -4.1028219 -0.4049071 -1.5767986
H -1.8888886 0.1960646 -1.4515962
C -4.9408296 -1.1204134 0.6542655
H -3.6135913 -0.7468584 2.2858616
C -5.1804980 -0.8651630 -0.7062956
H -4.5036352 -0.1890829 -2.6852336
H -5.7158798 -1.3193607 1.4102113
H -6.1398753 -0.9697321 -1.1153087
C 1.8978557 0.1375915 2.2588209
H 2.7610319 -0.2289561 2.7555472
H 2.0093838 1.3518795 1.7696264
H 1.1658865 0.0732781 3.1256736
C 0.3781207 2.0190708 -0.6981479
O 0.9852340 0.9413935 -0.9212614
C 1.3203638 3.2431181 -0.4155573
F 2.4359239 3.0791504 -1.2560638
F 0.7433734 4.4099448 -0.7047254
F 1.7939031 3.2021561 0.9572264
37
-1558.12250967     Aspernomine     33shift     Molecular     Dynamics     runpoint      6     runisomer      29
C 1.1383824 -2.3335790 -0.4252888
C 2.1811810 -1.6976931 0.4044782
C 3.4763863 -2.0535497 0.4746004
C 3.7750435 -3.2233982 -0.2775779
C 2.8138385 -3.9312132 -1.0450173
C 1.4810520 -3.5154595 -1.0715419
C -0.0629408 -0.6629682 0.5902189
C 1.4428674 -0.6105153 1.1478826
H 4.1654579 -1.5080857 1.0302484
H 4.9443846 -3.4832468 -0.3188496
H 2.9650172 -4.7038996 -1.7115927
H 0.6509896 -3.8688030 -1.8972403
H -0.9441474 -1.9761345 -0.8631854
N -0.0875098 -1.6397441 -0.2926728
S -1.2103980 0.2695820 1.2604692
O -0.8813231 2.1354588 -0.4416017
C -2.7066279 -0.2531989 0.3817273
C -2.8512436 -0.1619832 -0.9665478
C -3.6914356 -0.5982420 1.2031949
C -4.1068385 -0.4097614 -1.5957803
H -1.8513438 0.2336701 -1.4758480
C -4.9485161 -1.1241861 0.6411470
H -3.5802471 -0.7736227 2.3234885
C -5.1693104 -0.8634377 -0.7056233
H -4.4886132 -0.1830513 -2.6383380
H -5.7410958 -1.2888698 1.4695241
H -6.2064962 -0.9611398 -1.1324622
C 1.8842671 0.1500722 2.2568730
H 2.8042775 -0.2219311 2.7540854
H 2.0254839 1.3381843 1.7809821
H 1.1801759 0.0214606 3.1241245
C 0.3818713 2.0161762 -0.6983215
O 0.9834183 0.9447601 -0.9163692
C 1.3075494 3.2350465 -0.4184268
F 2.4420202 3.0720754 -1.2607104
F 0.7483928 4.4067554 -0.7031569
F 1.8071969 3.1997372 0.9688975
37
-1558.10304490     Aspernomine     33shift     Molecular     Dynamics     runpoint      7     runisomer      29
C 1.1405111 -2.3305017 -0.4282455
C 2.1879628 -1.6977266 0.4101513
C 3.4741944 -2.0464475 0.4624537
C 3.7818043 -3.2345920 -0.2730428
C 2.8106249 -3.9261708 -1.0465939
C 1.4843572 -3.5066011 -1.0719371
C -0.0727440 -0.6523120 0.5850814
C 1.4431358 -0.6126227 1.1531349
H 4.1776708 -1.4869250 1.0430227
H 4.8730346 -3.4416525 -0.3270029
H 2.9305408 -4.7073653 -1.7434592
H 0.6422980 -3.8553315 -1.9098182
H -0.9739966 -1.9986073 -0.8710408
N -0.0807106 -1.6369576 -0.2931295
S -1.2101222 0.2738864 1.2639303
O -0.8905491 2.1297101 -0.4411437
C -2.7070025 -0.2627917 0.3859794
C -2.8589497 -0.1656643 -0.9654677
C -3.6901073 -0.5987744 1.2047291
C -4.1117547 -0.4147115 -1.6135448
H -1.8396423 0.2645717 -1.4963788
C -4.9556258 -1.1260040 0.6300040
H -3.5462461 -0.7938457 2.3465523
C -5.1584429 -0.8617138 -0.7059910
H -4.4598002 -0.1797015 -2.5805789
H -5.7562228 -1.2605122 1.5095482
H -6.2618497 -0.9537062 -1.1457209
C 1.8712326 0.1649228 2.2557911
H 2.8483644 -0.2111789 2.7431645
H 2.0373762 1.2963804 1.8108127
H 1.1940007 -0.0201506 3.1145939
C 0.3842620 2.0135140 -0.6969313
O 0.9816860 0.9478074 -0.9116955
C 1.2965580 3.2267297 -0.4218908
F 2.4471808 3.0653123 -1.2643831
F 0.7536536 4.4032831 -0.7011703
F 1.8199021 3.1974452 0.9791607
37
-1558.08173347     Aspernomine     33shift     Molecular     Dynamics     runpoint      8     runisomer      29
C 1.1440213 -2.3268368 -0.4297193
C 2.1890990 -1.6948120 0.4164719
C 3.4733746 -2.0418213 0.4494118
C 3.7897628 -3.2450495 -0.2684724
C 2.8071336 -3.9200426 -1.0475411
C 1.4846452 -3.4970874 -1.0746231
C -0.0786265 -0.6421324 0.5808522
C 1.4426518 -0.6172879 1.1556473
H 4.1955323 -1.4649897 1.0571349
H 4.7923560 -3.4048962 -0.3360643
H 2.9087935 -4.7218271 -1.7790113
H 0.6579559 -3.8401698 -1.8995534
H -0.9795789 -2.0076609 -0.8608939
N -0.0755466 -1.6363269 -0.2957017
S -1.2102983 0.2784656 1.2673865
O -0.8983473 2.1240588 -0.4411344
C -2.7058349 -0.2716480 0.3906242
C -2.8649670 -0.1681296 -0.9681951
C -3.6921189 -0.6024042 1.2089356
C -4.1165705 -0.4200895 -1.6278090
H -1.8578810 0.2859380 -1.5094583
C -4.9621605 -1.1258342 0.6219066
H -3.5143435 -0.8064022 2.3491878
C -5.1494109 -0.8600976 -0.7081794
H -4.4257221 -0.1742753 -2.5355896
H -5.7577271 -1.2344472 1.5235643
H -6.2928508 -0.9463909 -1.1503286
C 1.8600404 0.1812845 2.2557940
H 2.8829105 -0.1939682 2.7195103
H 2.0430217 1.2329867 1.8571341
H 1.2048877 -0.0503356 3.1012693
C 0.3847433 2.0111910 -0.6939111
O 0.9801492 0.9503483 -0.9072832
C 1.2879741 3.2184472 -0.4257371
F 2.4512653 3.0588441 -1.2670401
F 0.7591051 4.3995068 -0.6987813
F 1.8319065 3.1952367 0.9878766
37
-1558.06433056     Aspernomine     33shift     Molecular     Dynamics     runpoint      9     runisomer      29
C 1.1487960 -2.3224250 -0.4295682
C 2.1844428 -1.6889890 0.4233470
C 3.4747535 -2.0393083 0.4361832
C 3.7957946 -3.2539075 -0.2638049
C 2.8036023 -3.9137152 -1.0485731
C 1.4820628 -3.4869621 -1.0795034
C -0.0802913 -0.6328029 0.5774198
C 1.4414199 -0.6242617 1.1554324
H 4.2114630 -1.4484087 1.0657200
H 4.7381283 -3.3808953 -0.3481085
H 2.8988841 -4.7378057 -1.8095113
H 0.6959914 -3.8241605 -1.8683853
H -0.9597000 -2.0029594 -0.8330371
N -0.0722361 -1.6377046 -0.3002960
S -1.2109618 0.2833220 1.2708175
O -0.9045832 2.1185200 -0.4415762
C -2.7032336 -0.2796949 0.3953045
C -2.8693052 -0.1693172 -0.9745814
C -3.6972441 -0.6091686 1.2156985
C -4.1201910 -0.4264334 -1.6359353
H -1.9055788 0.2966483 -1.5138504
C -4.9679320 -1.1236281 0.6174036
H -3.4870023 -0.8112034 2.3308899
C -5.1430107 -0.8586352 -0.7125846
H -4.3967491 -0.1595657 -2.5321594
H -5.7457524 -1.2115317 1.5093782
H -6.2941448 -0.9389054 -1.1447959
C 1.8514251 0.1977300 2.2569662
H 2.9019050 -0.1697231 2.6830000
H 2.0419310 1.1632351 1.9145392
H 1.2107069 -0.0688664 3.0887355
C 0.3829410 2.0092740 -0.6892634
O 0.9788874 0.9522217 -0.9031559
C 1.2822720 3.2104644 -0.4297366
F 2.4541645 3.0526497 -1.2686611
F 0.7646981 4.3954130 -0.6960140
F 1.8431173 3.1930715 0.9949348
37
-1558.06176706     Aspernomine     33shift     Molecular     Dynamics     runpoint      10     runisomer      29
C 1.1546042 -2.3171427 -0.4277375
C 2.1743675 -1.6804978 0.4306715
C 3.4785757 -2.0385705 0.4233156
C 3.7966457 -3.2604779 -0.2588678
C 2.8001529 -3.9078651 -1.0502501
C 1.4772797 -3.4762060 -1.0861282
C -0.0775721 -0.6246460 0.5746593
C 1.4394227 -0.6330840 1.1526782
H 4.2205974 -1.4411575 1.0640825
H 4.7476541 -3.3756500 -0.3665552
H 2.8997784 -4.7477154 -1.8279480
H 0.7498640 -3.8097507 -1.8225823
H -0.9192313 -1.9869627 -0.7916671
N -0.0705364 -1.6406980 -0.3064833
S -1.2121209 0.2884287 1.2741907
O -0.9092038 2.1131109 -0.4424527
C -2.6995177 -0.2869290 0.3997003
C -2.8722302 -0.1693177 -0.9840446
C -3.7050359 -0.6188940 1.2243603
C -4.1222124 -0.4338887 -1.6371917
H -1.9780216 0.2974336 -1.5107855
C -4.9725948 -1.1193315 0.6165086
H -3.4660660 -0.8092522 2.2961751
C -5.1395729 -0.8573636 -0.7192515
H -4.3759740 -0.1330283 -2.5782402
H -5.7236120 -1.1929689 1.4689963
H -6.2653523 -0.9313481 -1.1296352
C 1.8454362 0.2116693 2.2595946
H 2.9031582 -0.1395097 2.6357886
H 2.0368031 1.1169376 1.9722806
H 1.2102570 -0.0762265 3.0808150
C 0.3786714 2.0077699 -0.6830516
O 0.9779377 0.9533165 -0.8993228
C 1.2797988 3.2030085 -0.4336718
F 2.4558035 3.0467067 -1.2692426
F 0.7703918 4.3909978 -0.6928961
F 1.8534605 3.1909120 1.0002557
37
-1558.08802755     Aspernomine     33shift     Molecular     Dynamics     runpoint      11     runisomer      29
C 1.1610966 -2.3109289 -0.4242798
C 2.1597329 -1.6697810 0.4382902
C 3.4845064 -2.0393067 0.4111746
C 3.7928026 -3.2647270 -0.2537511
C 2.7967627 -3.9028522 -1.0528716
C 1.4716954 -3.4645790 -1.0934392
C -0.0704666 -0.6178966 0.5724516
C 1.4365952 -0.6430568 1.1477481
H 4.2211649 -1.4447988 1.0501459
H 4.8146595 -3.3878853 -0.3914487
H 2.9103610 -4.7473205 -1.8305034
H 0.8057001 -3.8023788 -1.7755268
H -0.8722511 -1.9661956 -0.7462718
N -0.0695112 -1.6445955 -0.3134137
S -1.2137524 0.2937334 1.2774649
O -0.9122282 2.1078572 -0.4437318
C -2.6951459 -0.2933980 0.4035368
C -2.8744219 -0.1684851 -0.9955290
C -3.7149401 -0.6312082 1.2337222
C -4.1230508 -0.4417905 -1.6336960
H -2.0644646 0.2921520 -1.5051104
C -4.9755643 -1.1128823 0.6186017
H -3.4521825 -0.8027184 2.2550572
C -5.1389908 -0.8563347 -0.7278443
H -4.3576640 -0.1017652 -2.6500909
H -5.6987121 -1.1802311 1.4097247
H -6.2108348 -0.9241331 -1.1071759
C 1.8415074 0.2199611 2.2639977
H 2.8881123 -0.1056907 2.5816976
H 2.0326300 1.1305883 2.0180360
H 1.2036068 -0.0733659 3.0797806
C 0.3719437 2.0066169 -0.6753993
O 0.9772902 0.9535840 -0.8957720
C 1.2807562 3.1962487 -0.4373507
F 2.4561345 3.0409921 -1.2687941
F 0.7761554 4.3862708 -0.6894549
F 1.8628927 3.1887269 1.0037930
37
-1558.11658522     Aspernomine     33shift     Molecular     Dynamics     runpoint      12     runisomer      29
C 1.1678101 -2.3038026 -0.4193725
C 2.1417803 -1.6574704 0.4459554
C 3.4917827 -2.0412746 0.3999424
C 3.7876677 -3.2670628 -0.2489422
C 2.7933207 -3.8987298 -1.0564730
C 1.4674231 -3.4515072 -1.0997124
C -0.0591602 -0.6126855 0.5706937
C 1.4327938 -0.6532909 1.1411728
H 4.2143143 -1.4585762 1.0244295
H 4.8988071 -3.4117240 -0.4178670
H 2.9294024 -4.7356692 -1.8165407
H 0.8420076 -3.8114104 -1.7481013
H -0.8449297 -1.9521761 -0.7122786
N -0.0673164 -1.6483241 -0.3197876
S -1.2158060 0.2991552 1.2805937
O -0.9137408 2.1027932 -0.4453692
C -2.6906225 -0.2991781 0.4065806
C -2.8772224 -0.1676059 -1.0074387
C -3.7264322 -0.6455892 1.2421444
C -4.1231532 -0.4492727 -1.6281254
H -2.1457314 0.2898658 -1.5071381
C -4.9758672 -1.1042090 0.6223171
H -3.4441923 -0.7947034 2.2226642
C -5.1404972 -0.8555861 -0.7376287
H -4.3364979 -0.0753047 -2.7187576
H -5.6842202 -1.1751071 1.3457746
H -6.1421519 -0.9181055 -1.0823100
C 1.8391377 0.2222604 2.2695656
H 2.8624430 -0.0717923 2.5258722
H 2.0284068 1.2080813 2.0502086
H 1.1919793 -0.0616866 3.0863334
C 0.3629680 2.0056929 -0.6664773
O 0.9768849 0.9530383 -0.8924709
C 1.2851873 3.1902781 -0.4406179
F 2.4551408 3.0354838 -1.2673327
F 0.7819676 4.3812534 -0.6857177
F 1.8713943 3.1864989 1.0055291
37
-1558.11662370     Aspernomine     33shift     Molecular     Dynamics     runpoint      13     runisomer      29
C 1.1742020 -2.2958539 -0.4133046
C 2.1220004 -1.6443552 0.4533271
C 3.4993872 -2.0443620 0.3896008
C 3.7838809 -3.2679034 -0.2449394
C 2.7897434 -3.8952573 -1.0608049
C 1.4661392 -3.4365569 -1.1036735
C -0.0440351 -0.6090272 0.5692938
C 1.4277967 -0.6627789 1.1336430
H 4.2040906 -1.4793052 0.9901343
H 4.9684155 -3.4417300 -0.4407372
H 2.9556183 -4.7150030 -1.7885223
H 0.8426264 -3.8445645 -1.7555929
H -0.8617451 -1.9554313 -0.7025528
N -0.0622114 -1.6508959 -0.3244927
S -1.2182129 0.3045958 1.2835299
O -0.9138983 2.0979654 -0.4473115
C -2.6864073 -0.3043500 0.4086266
C -2.8822997 -0.1678127 -1.0178650
C -3.7390451 -0.6614770 1.2480245
C -4.1227291 -0.4557616 -1.6223130
H -2.1984556 0.3037885 -1.5309851
C -4.9723029 -1.0932663 0.6258349
H -3.4397506 -0.7881474 2.2143378
C -5.1423063 -0.8550961 -0.7474821
H -4.3108554 -0.0599308 -2.7661045
H -5.6973251 -1.1796104 1.2953755
H -6.0819413 -0.9147801 -1.0635359
C 1.8379112 0.2216369 2.2749983
H 2.8367534 -0.0420806 2.4742328
H 2.0164752 1.3137154 2.0760855
H 1.1776857 -0.0428471 3.0996114
C 0.3521527 2.0048390 -0.6565034
O 0.9766258 0.9517465 -0.8893688
C 1.2929777 3.1851128 -0.4433453
F 2.4528373 3.0301629 -1.2648894
F 0.7878223 4.3759790 -0.6817101
F 1.8789711 3.1842242 1.0054718
37
-1558.11032784     Aspernomine     33shift     Molecular     Dynamics     runpoint      14     runisomer      29
C 1.1797398 -2.2872102 -0.4064170
C 2.1019989 -1.6313216 0.4600082
C 3.5061678 -2.0486228 0.3799351
C 3.7826666 -3.2675831 -0.2420934
C 2.7860168 -3.8918948 -1.0653255
C 1.4675146 -3.4204556 -1.1061027
C -0.0256661 -0.6068232 0.5681757
C 1.4213443 -0.6704581 1.1259877
H 4.1972692 -1.5013810 0.9530133
H 5.0079431 -3.4739687 -0.4568700
H 2.9879286 -4.6909282 -1.7520536
H 0.8145746 -3.8961926 -1.7891811
H -0.9147308 -1.9733973 -0.7127534
N -0.0548240 -1.6522969 -0.3276940
S -1.2208915 0.3099441 1.2862261
O -0.9129319 2.0934309 -0.4494984
C -2.6828579 -0.3089886 0.4095184
C -2.8900629 -0.1696187 -1.0256726
C -3.7521546 -0.6784119 1.2507006
C -4.1219075 -0.4609931 -1.6173274
H -2.2136023 0.3399976 -1.5821966
C -4.9645218 -1.0801544 0.6280505
H -3.4381735 -0.7842681 2.2356861
C -5.1419007 -0.8547716 -0.7561226
H -4.2813972 -0.0586459 -2.7837308
H -5.7468564 -1.1948903 1.2676360
H -6.0604673 -0.9161909 -1.0613538
C 1.8368456 0.2210617 2.2793937
H 2.8246912 -0.0203287 2.4321523
H 1.9920312 1.4130450 2.1002914
H 1.1640825 -0.0183985 3.1172155
C 0.3401075 2.0038879 -0.6457304
O 0.9763891 0.9498100 -0.8863994
C 1.3038618 3.1806972 -0.4454136
F 2.4492747 3.0250096 -1.2615072
F 0.7937184 4.3704968 -0.6774561
F 1.8856513 3.1819110 1.0036476
37
-1558.11827500     Aspernomine     33shift     Molecular     Dynamics     runpoint      15     runisomer      29
C 1.1839581 -2.2780540 -0.3990835
C 2.0833644 -1.6192684 0.4655992
C 3.5110266 -2.0541949 0.3706406
C 3.7843883 -3.2663928 -0.2406463
C 2.7821466 -3.8878736 -1.0692787
C 1.4701239 -3.4047724 -1.1088691
C -0.0048084 -0.6058849 0.5672625
C 1.4132138 -0.6752952 1.1191130
H 4.2017470 -1.5179979 0.9199355
H 5.0114974 -3.5055984 -0.4645465
H 3.0257821 -4.6718621 -1.7152106
H 0.7773045 -3.9507943 -1.8273058
H -0.9737231 -1.9948540 -0.7286805
N -0.0474109 -1.6531526 -0.3303006
S -1.2237582 0.3150824 1.2886372
O -0.9111583 2.0892572 -0.4518545
C -2.6802273 -0.3131622 0.4091712
C -2.8988943 -0.1721662 -1.0312902
C -3.7647815 -0.6960372 1.2508682
C -4.1208285 -0.4649060 -1.6137940
H -2.2051668 0.3885825 -1.6485847
C -4.9541057 -1.0653161 0.6293347
H -3.4423531 -0.7824848 2.2779871
C -5.1381430 -0.8545669 -0.7628749
H -4.2498095 -0.0723650 -2.7692707
H -5.8209142 -1.2191913 1.2539176
H -6.0910658 -0.9233981 -1.0799539
C 1.8349008 0.2220973 2.2824462
H 2.8357177 -0.0079777 2.4027084
H 1.9548575 1.4869929 2.1236463
H 1.1548575 0.0101362 3.1359756
C 0.3276215 2.0026908 -0.6344378
O 0.9760384 0.9473355 -0.8834853
C 1.3174307 3.1769162 -0.4466929
F 2.4445480 3.0200044 -1.2572529
F 0.7996643 4.3648664 -0.6729818
F 1.8914765 3.1795760 1.0000949
37
-1558.12279495     Aspernomine     33shift     Molecular     Dynamics     runpoint      16     runisomer      29
C 1.1864838 -2.2686675 -0.3917301
C 2.0675271 -1.6089962 0.4697687
C 3.5132635 -2.0610234 0.3616165
C 3.7889317 -3.2646074 -0.2407732
C 2.7781354 -3.8824743 -1.0719641
C 1.4729017 -3.3908380 -1.1133334
C 0.0176141 -0.6059492 0.5664584
C 1.4033236 -0.6764086 1.1138935
H 4.2224689 -1.5244086 0.8954209
H 4.9784262 -3.5345031 -0.4629753
H 3.0688683 -4.6659692 -1.6856702
H 0.7454668 -3.9950246 -1.8541617
H -1.0155052 -2.0110520 -0.7400433
N -0.0417167 -1.6539188 -0.3329522
S -1.2267305 0.3198951 1.2907218
O -0.9089715 2.0855114 -0.4542998
C -2.6786666 -0.3169281 0.4075728
C -2.9067404 -0.1741535 -1.0356698
C -3.7757479 -0.7139869 1.2499448
C -4.1196130 -0.4675794 -1.6120187
H -2.1918928 0.4344749 -1.7123287
C -4.9437007 -1.0494922 0.6304723
H -3.4565275 -0.7818836 2.3256562
C -5.1327436 -0.8546079 -0.7680962
H -4.2183523 -0.1004518 -2.7249399
H -5.8970570 -1.2481308 1.2402598
H -6.1532048 -0.9350880 -1.1119917
C 1.8318904 0.2252599 2.2842274
H 2.8672561 -0.0030815 2.3861158
H 1.9070725 1.5268579 2.1453773
H 1.1529829 0.0410017 3.1530473
C 0.3156209 2.0011364 -0.6229205
O 0.9754408 0.9444195 -0.8805469
C 1.3331502 3.1736231 -0.4470152
F 2.4387984 3.0151220 -1.2522208
F 0.8056716 4.3591549 -0.6683149
F 1.8965009 3.1772358 0.9948580
37
-1558.11440538     Aspernomine     33shift     Molecular     Dynamics     runpoint      17     runisomer      29
C 1.1870646 -2.2594473 -0.3848317
C 2.0556274 -1.6010880 0.4723295
C 3.5129032 -2.0685987 0.3532077
C 3.7958007 -3.2624745 -0.2425813
C 2.7741142 -3.8754916 -1.0731170
C 1.4753244 -3.3794090 -1.1201001
C 0.0405301 -0.6066869 0.5656408
C 1.3918457 -0.6732110 1.1110570
H 4.2573458 -1.5210707 0.8786614
H 4.9124740 -3.5593450 -0.4521822
H 3.1155377 -4.6758941 -1.6664159
H 0.7264984 -4.0210934 -1.8622425
H -1.0289254 -2.0176043 -0.7420644
N -0.0385837 -1.6547486 -0.3358879
S -1.2297379 0.3242760 1.2924452
O -0.9068279 2.0822563 -0.4567448
C -2.6782450 -0.3203335 0.4047699
C -2.9122009 -0.1746851 -1.0393750
C -3.7839662 -0.7318491 1.2492773
C -4.1183336 -0.4692552 -1.6118161
H -2.1853383 0.4672657 -1.7608776
C -4.9356927 -1.0334709 0.6317163
H -3.4833428 -0.7821146 2.3650630
C -5.1281965 -0.8550848 -0.7724630
H -4.1897668 -0.1403268 -2.6588863
H -5.9571926 -1.2770259 1.2184105
H -6.2168031 -0.9488968 -1.1467983
C 1.8284809 0.2305664 2.2849398
H 2.9067541 -0.0016231 2.3809180
H 1.8516855 1.5292609 2.1642576
H 1.1600135 0.0720745 3.1666960
C 0.3051006 1.9991614 -0.6114706
O 0.9744817 0.9411279 -0.8775061
C 1.3503765 3.1706638 -0.4461604
F 2.4322235 3.0103349 -1.2465405
F 0.8117533 4.3534373 -0.6634836
F 1.9007811 3.1749030 0.9879848
37
-1558.10286745     Aspernomine     33shift     Molecular     Dynamics     runpoint      18     runisomer      29
C 1.1855899 -2.2508758 -0.3788911
C 2.0483991 -1.5957992 0.4732925
C 3.5105941 -2.0760552 0.3460770
C 3.8039235 -3.2601261 -0.2460574
C 2.7704768 -3.8674232 -1.0730060
C 1.4771560 -3.3707553 -1.1292632
C 0.0627582 -0.6077212 0.5646673
C 1.3792984 -0.6655276 1.1110801
H 4.2981277 -1.5128392 0.8648510
H 4.8241893 -3.5804230 -0.4334486
H 3.1613777 -4.6966229 -1.6545932
H 0.7232836 -4.0254235 -1.8493102
H -1.0110564 -2.0131607 -0.7335173
N -0.0382195 -1.6555995 -0.3390911
S -1.2327170 0.3281313 1.2937768
O -0.9051931 2.0795425 -0.4591046
C -2.6789593 -0.3234114 0.4008658
C -2.9145531 -0.1733257 -1.0425453
C -3.7886285 -0.7492141 1.2497911
C -4.1169998 -0.4704399 -1.6120903
H -2.1904259 0.4818472 -1.7877344
C -4.9317793 -1.0179241 0.6328155
H -3.5229996 -0.7833582 2.3876647
C -5.1260929 -0.8561172 -0.7764256
H -4.1671826 -0.1863488 -2.5892432
H -5.9910728 -1.3021876 1.1860640
H -6.2618284 -0.9629119 -1.1769278
C 1.8255173 0.2378710 2.2847675
H 2.9404142 0.0003271 2.3851528
H 1.7921108 1.4941517 2.1789063
H 1.1759130 0.1008740 3.1766437
C 0.2970321 1.9967571 -0.6003590
O 0.9730696 0.9374932 -0.8742909
C 1.3683803 3.1678996 -0.4438504
F 2.4250830 3.0056059 -1.2403836
F 0.8179166 4.3477862 -0.6585181
F 1.9043789 3.1725805 0.9795279
37
-1558.09486188     Aspernomine     33shift     Molecular     Dynamics     runpoint      19     runisomer      29
C 1.1821081 -2.2434708 -0.3743837
C 2.0461160 -1.5930269 0.4728669
C 3.5071900 -2.0825148 0.3408554
C 3.8112242 -3.2573420 -0.2509757
C 2.7677819 -3.8591177 -1.0721326
C 1.4783210 -3.3647773 -1.1405736
C 0.0830548 -0.6086507 0.5633728
C 1.3665576 -0.6536495 1.1141513
H 4.3351722 -1.5053855 0.8490264
H 4.7361082 -3.6020078 -0.4101835
H 3.2002660 -4.7193655 -1.6449491
H 0.7357818 -4.0075076 -1.8164788
H -0.9655778 -1.9988723 -0.7159218
N -0.0403145 -1.6562736 -0.3423421
S -1.2356184 0.3313836 1.2946931
O -0.9044764 2.0774021 -0.4613062
C -2.6807553 -0.3261767 0.3960281
C -2.9135702 -0.1699607 -1.0451069
C -3.7893360 -0.7657415 1.2519064
C -4.1155591 -0.4719187 -1.6105596
H -2.2080514 0.4766819 -1.7905161
C -4.9329454 -1.0033476 0.6333227
H -3.5736284 -0.7860520 2.3899102
C -5.1270914 -0.8577299 -0.7802022
H -4.1535830 -0.2296333 -2.5467900
H -5.9944955 -1.3210787 1.1443729
H -6.2786850 -0.9759442 -1.1984068
C 1.8235776 0.2468938 2.2838437
H 2.9585437 0.0056240 2.3967276
H 1.7319734 1.4253968 2.1877316
H 1.1992260 0.1246576 3.1840847
C 0.2922420 1.9939632 -0.5898163
O 0.9711431 0.9335205 -0.8708442
C 1.3863619 3.1652211 -0.4397637
F 2.4176885 3.0008888 -1.2339628
F 0.8241688 4.3422721 -0.6534453
F 1.9073609 3.1702633 0.9695516
37
-1558.09212499     Aspernomine     33shift     Molecular     Dynamics     runpoint      20     runisomer      29
C 1.1768408 -2.2377065 -0.3717028
C 2.0486040 -1.5923766 0.4713923
C 3.5034267 -2.0873316 0.3379342
C 3.8145589 -3.2533357 -0.2569056
C 2.7665278 -3.8513510 -1.0709365
C 1.4789485 -3.3610276 -1.1534653
C 0.1001967 -0.6090892 0.5615907
C 1.3547644 -0.6382770 1.1201942
H 4.3610463 -1.5027306 0.8283532
H 4.6836145 -3.6347951 -0.3876964
H 3.2267143 -4.7364194 -1.6333126
H 0.7607813 -3.9701564 -1.7681868
H -0.9051819 -1.9792267 -0.6944148
N -0.0438779 -1.6563548 -0.3451607
S -1.2384038 0.3339767 1.2951706
O -0.9049476 2.0758401 -0.4632940
C -2.6835421 -0.3286370 0.3904957
C -2.9094305 -0.1647196 -1.0468768
C -3.7861907 -0.7811942 1.2554731
C -4.1139720 -0.4743076 -1.6050368
H -2.2361488 0.4529962 -1.7700113
C -4.9394310 -0.9900464 0.6328034
H -3.6317678 -0.7906908 2.3729753
C -5.1312716 -0.8598825 -0.7838638
H -4.1505613 -0.2632694 -2.5598873
H -5.9679514 -1.3323217 1.0965993
H -6.2644415 -0.9873821 -1.2095415
C 1.8229205 0.2569251 2.2822870
H 2.9564874 0.0160901 2.4134680
H 1.6745593 1.3340174 2.1887392
H 1.2275081 0.1406262 3.1913602
C 0.2912943 1.9908576 -0.5800182
O 0.9686702 0.9291995 -0.8671252
C 1.4034888 3.1625521 -0.4335721
F 2.4103978 2.9961290 -1.2275264
F 0.8305089 4.3369580 -0.6482893
F 1.9098004 3.1679359 0.9581467
37
-1558.10482748     Aspernomine     33shift     Molecular     Dynamics     runpoint      21     runisomer      29
C 1.1701886 -2.2339501 -0.3711022
C 2.0553198 -1.5932842 0.4692413
C 3.4997911 -2.0901064 0.3374584
C 3.8118371 -3.2474074 -0.2636085
C 2.7669871 -3.8446391 -1.0697156
C 1.4795938 -3.3586061 -1.1669451
C 0.1130969 -0.6086962 0.5591806
C 1.3451287 -0.6203960 1.1289274
H 4.3716630 -1.5066397 0.8024199
H 4.6904784 -3.6885151 -0.3685247
H 3.2372275 -4.7432204 -1.6176651
H 0.7897346 -3.9213150 -1.7137095
H -0.8556998 -1.9635338 -0.6793511
N -0.0469654 -1.6550978 -0.3466987
S -1.2410476 0.3358711 1.2951884
O -0.9066743 2.0748395 -0.4650370
C -2.6872037 -0.3307889 0.3845874
C -2.9027387 -0.1580304 -1.0474875
C -3.7798090 -0.7954312 1.2597049
C -4.1122848 -0.4774175 -1.5962048
H -2.2690666 0.4153948 -1.7309254
C -4.9506224 -0.9781042 0.6308833
H -3.6928251 -0.7976731 2.3432250
C -5.1383274 -0.8624907 -0.7873519
H -4.1573350 -0.2896685 -2.6221078
H -5.9172449 -1.3362096 1.0480813
H -6.2210895 -0.9971414 -1.2103984
C 1.8236142 0.2662919 2.2802929
H 2.9342555 0.0327844 2.4331647
H 1.6209731 1.2438704 2.1792176
H 1.2580169 0.1463612 3.2011243
C 0.2943935 1.9875486 -0.5710773
O 0.9656502 0.9245110 -0.8631131
C 1.4189341 3.1598479 -0.4249910
F 2.4035833 2.9912650 -1.2213406
F 0.8369308 4.3318986 -0.6430677
F 1.9117811 3.1655845 0.9454416
37
-1558.12108459     Aspernomine     33shift     Molecular     Dynamics     runpoint      22     runisomer      29
C 1.1627307 -2.2324133 -0.3726629
C 2.0654657 -1.5951392 0.4667422
C 3.4964696 -2.0906311 0.3393813
C 3.8045979 -3.2403648 -0.2713220
C 2.7691389 -3.8392365 -1.0686608
C 1.4815070 -3.3560290 -1.1795025
C 0.1209473 -0.6071990 0.5560857
C 1.3387207 -0.6011473 1.1399074
H 4.3663866 -1.5167218 0.7728309
H 4.7389314 -3.7554386 -0.3492721
H 3.2305856 -4.7385193 -1.5979501
H 0.8058622 -3.8760756 -1.6685554
H -0.8480643 -1.9630017 -0.6831697
N -0.0473075 -1.6516410 -0.3459876
S -1.2435303 0.3370462 1.2947220
O -0.9094916 2.0743632 -0.4665231
C -2.6916090 -0.3326302 0.3786880
C -2.8946864 -0.1507775 -1.0461790
C -3.7711722 -0.8083847 1.2631995
C -4.1105864 -0.4806772 -1.5869195
H -2.2956047 0.3736318 -1.6842468
C -4.9648879 -0.9673105 0.6271358
H -3.7518671 -0.8071763 2.3124348
C -5.1474813 -0.8654041 -0.7904515
H -4.1713493 -0.3154062 -2.7004232
H -5.8561796 -1.3361347 1.0070810
H -6.1564948 -1.0058923 -1.2032864
C 1.8257188 0.2722689 2.2782462
H 2.8966491 0.0560646 2.4537500
H 1.5671238 1.1920242 2.1556913
H 1.2884852 0.1405320 3.2150250
C 0.3013544 1.9841610 -0.5630424
O 0.9621106 0.9194353 -0.8588049
C 1.4319388 3.1570824 -0.4138542
F 2.3975977 2.9862353 -1.2156666
F 0.8434212 4.3271411 -0.6377911
F 1.9134032 3.1631988 0.9316159
37
-1558.11645621     Aspernomine     33shift     Molecular     Dynamics     runpoint      23     runisomer      29
C 1.1552142 -2.2331339 -0.3762792
C 2.0781118 -1.5973793 0.4641420
C 3.4933535 -2.0889469 0.3434695
C 3.7958044 -3.2338302 -0.2802294
C 2.7727066 -3.8351541 -1.0678667
C 1.4862548 -3.3516599 -1.1895654
C 0.1233446 -0.6043816 0.5523964
C 1.3362895 -0.5817197 1.1525391
H 4.3481981 -1.5304240 0.7428694
H 4.7954496 -3.8178641 -0.3267260
H 3.2078577 -4.7243222 -1.5758512
H 0.7886648 -3.8520029 -1.6493262
H -0.8852639 -1.9781655 -0.7068434
N -0.0447539 -1.6459255 -0.3429531
S -1.2458365 0.3374997 1.2937514
O -0.9130377 2.0743593 -0.4677550
C -2.6966150 -0.3341619 0.3732302
C -2.8871192 -0.1443404 -1.0417092
C -3.7613594 -0.8200225 1.2642945
C -4.1089344 -0.4837397 -1.5794963
H -2.2982838 0.3428834 -1.6481577
C -4.9795779 -0.9570498 0.6209418
H -3.8049119 -0.8191231 2.2947761
C -5.1572019 -0.8683415 -0.7927098
H -4.1895408 -0.3440240 -2.7669037
H -5.8084121 -1.3403216 0.9852622
H -6.0875480 -1.0157000 -1.1942883
C 1.8289026 0.2732817 2.2765834
H 2.8541214 0.0852815 2.4737441
H 1.5071406 1.2021931 2.1165058
H 1.3174531 0.1234644 3.2326029
C 0.3116319 1.9808290 -0.5559092
O 0.9581077 0.9139551 -0.8542123
C 1.4418835 3.1542325 -0.4001906
F 2.3927329 2.9809843 -1.2107212
F 0.8499564 4.3227238 -0.6324590
F 1.9147822 3.1607779 0.9169108
37
-1558.10676231     Aspernomine     33shift     Molecular     Dynamics     runpoint      24     runisomer      29
C 1.1484718 -2.2359652 -0.3816676
C 2.0922977 -1.5995360 0.4616019
C 3.4900509 -2.0854326 0.3492781
C 3.7874887 -3.2288960 -0.2901859
C 2.7772352 -3.8321338 -1.0672976
C 1.4939266 -3.3450817 -1.1967898
C 0.1203429 -0.6000817 0.5483723
C 1.3381679 -0.5632530 1.1660666
H 4.3239135 -1.5429643 0.7172460
H 4.8379633 -3.8629207 -0.3007338
H 3.1724543 -4.7061661 -1.5547940
H 0.7347380 -3.8529746 -1.6588245
H -0.9387111 -1.9971215 -0.7376904
N -0.0415155 -1.6388336 -0.3385720
S -1.2479611 0.3372447 1.2922568
O -0.9168137 2.0747780 -0.4687436
C -2.7020660 -0.3353946 0.3686680
C -2.8817282 -0.1398584 -1.0331767
C -3.7513242 -0.8303177 1.2618693
C -4.1073493 -0.4864969 -1.5750758
H -2.2622776 0.3353171 -1.6381635
C -4.9920169 -0.9465581 0.6117529
H -3.8495725 -0.8332969 2.2986653
C -5.1651048 -0.8708403 -0.7933523
H -4.2091293 -0.3760670 -2.8064974
H -5.7976912 -1.3589884 0.9936527
H -6.0412646 -1.0306814 -1.1943503
C 1.8314593 0.2713215 2.2753238
H 2.8225971 0.1186624 2.4928517
H 1.4455436 1.2556482 2.0670804
H 1.3440076 0.0971487 3.2513237
C 0.3244249 1.9776862 -0.5496353
O 0.9537214 0.9080556 -0.8493565
C 1.4483444 3.1512700 -0.3843030
F 2.3891774 2.9754716 -1.2066476
F 0.8565031 4.3186819 -0.6270650
F 1.9160539 3.1583343 0.9016452
37
-1558.10580933     Aspernomine     33shift     Molecular     Dynamics     runpoint      25     runisomer      29
C 1.1432590 -2.2405893 -0.3884271
C 2.1070997 -1.6012510 0.4592108
C 3.4859743 -2.0807752 0.3561906
C 3.7807165 -3.2259546 -0.3008223
C 2.7821557 -3.8296501 -1.0667772
C 1.5025293 -3.3373281 -1.2022095
C 0.1124031 -0.5942081 0.5444053
C 1.3442507 -0.5467258 1.1795875
H 4.3032415 -1.5480232 0.7013589
H 4.8561984 -3.8844067 -0.2727780
H 3.1297402 -4.6929839 -1.5397325
H 0.6648389 -3.8662285 -1.6844286
H -0.9818386 -2.0086837 -0.7633998
N -0.0396519 -1.6312368 -0.3338259
S -1.2499028 0.3363045 1.2902269
O -0.9202696 2.0755787 -0.4695009
C -2.7077808 -0.3363491 0.3654657
C -2.8785214 -0.1370932 -1.0214659
C -3.7418852 -0.8392441 1.2559720
C -4.1058249 -0.4889464 -1.5740404
H -2.1925509 0.3468393 -1.6499405
C -5.0016043 -0.9358964 0.5999825
H -3.8839608 -0.8494256 2.3202350
C -5.1691454 -0.8724137 -0.7917382
H -4.2278194 -0.4107319 -2.8128783
H -5.8243236 -1.3927670 1.0322060
H -6.0410475 -1.0553070 -1.2139856
C 1.8311942 0.2694585 2.2742248
H 2.8174202 0.1546174 2.5115169
H 1.3933106 1.3191601 2.0173307
H 1.3674224 0.0646667 3.2676403
C 0.3387907 1.9748514 -0.5441518
O 0.9490525 0.9017245 -0.8442690
C 1.4511176 3.1481460 -0.3668099
F 2.3869996 2.9696775 -1.2035002
F 0.8630175 4.3150449 -0.6215958
F 1.9173775 3.1558891 0.8862266
37
-1558.11088358     Aspernomine     33shift     Molecular     Dynamics     runpoint      26     runisomer      29
C 1.1401037 -2.2465577 -0.3961049
C 2.1216624 -1.6022639 0.4570072
C 3.4806669 -2.0757168 0.3636008
C 3.7760300 -3.2249422 -0.3116551
C 2.7868934 -3.8270997 -1.0661109
C 1.5098529 -3.3295128 -1.2069401
C 0.1002892 -0.5867614 0.5409405
C 1.3540606 -0.5329186 1.1920962
H 4.2948117 -1.5403560 0.6994126
H 4.8464890 -3.8802988 -0.2447809
H 3.0854018 -4.6945066 -1.5356324
H 0.6024033 -3.8782839 -1.7129827
H -1.0011105 -2.0070335 -0.7772595
N -0.0401952 -1.6236680 -0.3292943
S -1.2516729 0.3347135 1.2876591
O -0.9228738 2.0767340 -0.4700348
C -2.7135483 -0.3370487 0.3640521
C -2.8761505 -0.1349188 -1.0086917
C -3.7337986 -0.8467969 1.2475103
C -4.1043031 -0.4911218 -1.5763281
H -2.1097975 0.3630605 -1.6655881
C -5.0097344 -0.9261482 0.5871975
H -3.9057248 -0.8671031 2.3471663
C -5.1697678 -0.8730280 -0.7883942
H -4.2437516 -0.4466836 -2.7850701
H -5.8661216 -1.4300637 1.0882074
H -6.0816711 -1.0891071 -1.2511517
C 1.8272901 0.2695475 2.2733603
H 2.8417901 0.1933512 2.5286162
H 1.3577065 1.3711760 1.9755728
H 1.3870447 0.0293580 3.2782917
C 0.3537561 1.9724185 -0.5393759
O 0.9442207 0.8949527 -0.8389813
C 1.4502098 3.1447981 -0.3486504
F 2.3861552 2.9636006 -1.2012394
F 0.8694451 4.3118396 -0.6160349
F 1.9189381 3.1534689 0.8711628
37
-1558.11049316     Aspernomine     33shift     Molecular     Dynamics     runpoint      27     runisomer      29
C 1.1392476 -2.2533155 -0.4042417
C 2.1352026 -1.6023893 0.4549990
C 3.4742787 -2.0706925 0.3711318
C 3.7736726 -3.2255184 -0.3221608
C 2.7910389 -3.8242878 -1.0653570
C 1.5145119 -3.3222642 -1.2116510
C 0.0849429 -0.5778471 0.5383963
C 1.3668695 -0.5224291 1.2025605
H 4.3004503 -1.5195034 0.7121676
H 4.8091679 -3.8512557 -0.2186291
H 3.0429297 -4.7153033 -1.5443083
H 0.5618459 -3.8817001 -1.7368670
H -0.9922696 -1.9903605 -0.7768835
N -0.0433995 -1.6164233 -0.3252387
S -1.2532915 0.3325152 1.2845689
O -0.9241586 2.0782294 -0.4703532
C -2.7191391 -0.3375110 0.3647529
C -2.8734038 -0.1324693 -0.9967020
C -3.7277377 -0.8530072 1.2375223
C -4.1026616 -0.4930759 -1.5814677
H -2.0330731 0.3727794 -1.6707011
C -5.0177650 -0.9184305 0.5752085
H -3.9126987 -0.8857604 2.3669960
C -5.1692555 -0.8731284 -0.7848500
H -4.2555371 -0.4823054 -2.7269873
H -5.9020856 -1.4585875 1.1469811
H -6.1366808 -1.1262302 -1.2929354
C 1.8206479 0.2724042 2.2732376
H 2.8838014 0.2359351 2.5404085
H 1.3412175 1.4014931 1.9470597
H 1.4023899 -0.0058041 3.2811605
C 0.3683885 1.9704504 -0.5352188
O 0.9393496 0.8877380 -0.8335247
C 1.4457828 3.1411570 -0.3310196
F 2.3865052 2.9572558 -1.1997586
F 0.8757194 4.3090901 -0.6103645
F 1.9209437 3.1510976 0.8570483
37
-1558.10482087     Aspernomine     33shift     Molecular     Dynamics     runpoint      28     runisomer      29
C 1.1406569 -2.2602165 -0.4123819
C 2.1470115 -1.6014894 0.4531841
C 3.4676610 -2.0657068 0.3786960
C 3.7735453 -3.2271010 -0.3318318
C 2.7944065 -3.8217577 -1.0649858
C 1.5158624 -3.3158751 -1.2166896
C 0.0673799 -0.5676809 0.5370912
C 1.3818474 -0.5156819 1.2100380
H 4.3139174 -1.4906213 0.7366540
H 4.7489084 -3.8008062 -0.1958567
H 3.0028947 -4.7505809 -1.5623982
H 0.5498156 -3.8735704 -1.7526573
H -0.9575501 -1.9597319 -0.7631330
N -0.0489579 -1.6096341 -0.3216833
S -1.2547912 0.3297618 1.2809947
O -0.9237450 2.0800618 -0.4704634
C -2.7243379 -0.3377364 0.3677411
C -2.8696814 -0.1293706 -0.9866727
C -3.7242226 -0.8579316 1.2267982
C -4.1007214 -0.4948749 -1.5883390
H -1.9740708 0.3706738 -1.6583543
C -5.0263051 -0.9134061 0.5654755
H -3.9037790 -0.9047849 2.3714176
C -5.1695442 -0.8731926 -0.7825638
H -4.2626890 -0.5159037 -2.6499724
H -5.9208943 -1.4711067 1.1979590
H -6.1833934 -1.1605243 -1.3275636
C 1.8128438 0.2784241 2.2744463
H 2.9265425 0.2823652 2.5428822
H 1.3435112 1.4061209 1.9347646
H 1.4132258 -0.0384979 3.2756297
C 0.3818428 1.9689649 -0.5316011
O 0.9345637 0.8800897 -0.8279235
C 1.4381101 3.1371632 -0.3152453
F 2.3878565 2.9506673 -1.1989160
F 0.8817679 4.3068154 -0.6045715
F 1.9236197 3.1487915 0.8445283
37
-1558.09993366     Aspernomine     33shift     Molecular     Dynamics     runpoint      29     runisomer      29
C 1.1440775 -2.2665559 -0.4200815
C 2.1564609 -1.5994615 0.4515592
C 3.4619291 -2.0605680 0.3863424
C 3.7748798 -3.2287445 -0.3402759
C 2.7968774 -3.8204849 -1.0656927
C 1.5137821 -3.3104993 -1.2222328
C 0.0486220 -0.5565858 0.5372107
C 1.3981889 -0.5129116 1.2137910
H 4.3258100 -1.4612541 0.7682106
H 4.6780139 -3.7372104 -0.1768956
H 2.9649139 -4.7895061 -1.5833463
H 0.5680576 -3.8535729 -1.7594028
H -0.9068317 -1.9194368 -0.7408117
N -0.0559508 -1.6032196 -0.3183587
S -1.2562150 0.3265189 1.2769979
O -0.9213464 2.0822375 -0.4703759
C -2.7289671 -0.3377092 0.3729985
C -2.8648383 -0.1255727 -0.9792470
C -3.7235900 -0.8616410 1.2158186
C -4.0981820 -0.4965589 -1.5947745
H -1.9387219 0.3552725 -1.6267911
C -5.0354458 -0.9113475 0.5589960
H -3.8791911 -0.9236674 2.3568501
C -5.1716222 -0.8735217 -0.7824895
H -4.2666717 -0.5463638 -2.5774657
H -5.9183279 -1.4646716 1.2347326
H -6.2095640 -1.1878964 -1.3484539
C 1.8052599 0.2878000 2.2773122
H 2.9568279 0.3312905 2.5339264
H 1.3626369 1.3847326 1.9400907
H 1.4195011 -0.0671538 3.2626620
C 0.3933785 1.9679367 -0.5284624
O 0.9299775 0.8720344 -0.8221864
C 1.4275523 3.1327815 -0.3025960
F 2.3899916 2.9438613 -1.1985612
F 0.8875136 4.3050326 -0.5986488
F 1.9271784 3.1465539 0.8342248
37
-1558.09305672     Aspernomine     33shift     Molecular     Dynamics     runpoint      30     runisomer      29
C 1.1491033 -2.2716186 -0.4269273
C 2.1630398 -1.5962417 0.4501236
C 3.4580035 -2.0551395 0.3941025
C 3.7757648 -3.2289613 -0.3474003
C 2.7982895 -3.8213153 -1.0680732
C 1.5086020 -3.3062031 -1.2283198
C 0.0296628 -0.5449849 0.5387895
C 1.4151982 -0.5141193 1.2133926
H 4.3285231 -1.4379485 0.8025115
H 4.6215159 -3.6759298 -0.1593727
H 2.9293610 -4.8215768 -1.6009145
H 0.6143192 -3.8233791 -1.7581563
H -0.8614262 -1.8781518 -0.7207587
N -0.0626202 -1.5967755 -0.3145585
S -1.2576247 0.3228606 1.2726625
O -0.9167696 2.0847660 -0.4701052
C -2.7329023 -0.3373997 0.3803051
C -2.8590028 -0.1212113 -0.9746328
C -3.7259832 -0.8641994 1.2047634
C -4.0945888 -0.4980461 -1.5976993
H -1.9289401 0.3274273 -1.5775936
C -5.0450137 -0.9122739 0.5563042
H -3.8404367 -0.9421402 2.3242007
C -5.1758045 -0.8742564 -0.7850821
H -4.2714697 -0.5742931 -2.5437373
H -5.8943728 -1.4390865 1.2539699
H -6.2103138 -1.2060971 -1.3530096
C 1.7988930 0.3004080 2.2818096
H 2.9671851 0.3806757 2.5136020
H 1.3950349 1.3407925 1.9628860
H 1.4212141 -0.0909860 3.2446366
C 0.4023777 1.9672839 -0.5257708
O 0.9256897 0.8636162 -0.8163038
C 1.4145743 3.1280169 -0.2940820
F 2.3926878 2.9368629 -1.1985630
F 0.8928748 4.3037579 -0.5925997
F 1.9317800 3.1443712 0.8266358
